
---------- Begin Simulation Statistics ----------
sim_seconds                                  0.001277                       # Number of seconds simulated
sim_ticks                                  1277439369                       # Number of ticks simulated
final_tick                                 1277439369                       # Number of ticks from beginning of simulation (restored from checkpoints and never reset)
sim_freq                                 1000000000000                       # Frequency of simulated ticks
host_inst_rate                                 226837                       # Simulator instruction rate (inst/s)
host_op_rate                                   226837                       # Simulator op (including micro ops) rate (op/s)
host_tick_rate                              139225826                       # Simulator tick rate (ticks/s)
host_mem_usage                                 697312                       # Number of bytes of host memory used
host_seconds                                     9.18                       # Real time elapsed on the host
sim_insts                                     2081296                       # Number of instructions simulated
sim_ops                                       2081296                       # Number of ops (including micro ops) simulated
system.voltage_domain.voltage                       1                       # Voltage in Volts
system.clk_domain.clock                          1000                       # Clock period in ticks
system.mem_ctrls.bytes_read::cpu00.inst        118656                       # Number of bytes read from this memory
system.mem_ctrls.bytes_read::cpu00.data        376384                       # Number of bytes read from this memory
system.mem_ctrls.bytes_read::cpu01.inst         11392                       # Number of bytes read from this memory
system.mem_ctrls.bytes_read::cpu01.data          5248                       # Number of bytes read from this memory
system.mem_ctrls.bytes_read::cpu02.inst          3968                       # Number of bytes read from this memory
system.mem_ctrls.bytes_read::cpu02.data          5056                       # Number of bytes read from this memory
system.mem_ctrls.bytes_read::cpu03.inst           640                       # Number of bytes read from this memory
system.mem_ctrls.bytes_read::cpu03.data          5440                       # Number of bytes read from this memory
system.mem_ctrls.bytes_read::cpu04.inst           320                       # Number of bytes read from this memory
system.mem_ctrls.bytes_read::cpu04.data          4480                       # Number of bytes read from this memory
system.mem_ctrls.bytes_read::cpu05.inst          2496                       # Number of bytes read from this memory
system.mem_ctrls.bytes_read::cpu05.data          5568                       # Number of bytes read from this memory
system.mem_ctrls.bytes_read::cpu06.inst           320                       # Number of bytes read from this memory
system.mem_ctrls.bytes_read::cpu06.data          5440                       # Number of bytes read from this memory
system.mem_ctrls.bytes_read::cpu07.inst          2048                       # Number of bytes read from this memory
system.mem_ctrls.bytes_read::cpu07.data          5312                       # Number of bytes read from this memory
system.mem_ctrls.bytes_read::cpu08.inst           512                       # Number of bytes read from this memory
system.mem_ctrls.bytes_read::cpu08.data          4416                       # Number of bytes read from this memory
system.mem_ctrls.bytes_read::cpu09.inst          1088                       # Number of bytes read from this memory
system.mem_ctrls.bytes_read::cpu09.data          5632                       # Number of bytes read from this memory
system.mem_ctrls.bytes_read::cpu10.inst          1408                       # Number of bytes read from this memory
system.mem_ctrls.bytes_read::cpu10.data          5696                       # Number of bytes read from this memory
system.mem_ctrls.bytes_read::cpu11.inst           768                       # Number of bytes read from this memory
system.mem_ctrls.bytes_read::cpu11.data          5504                       # Number of bytes read from this memory
system.mem_ctrls.bytes_read::cpu12.inst           768                       # Number of bytes read from this memory
system.mem_ctrls.bytes_read::cpu12.data          4416                       # Number of bytes read from this memory
system.mem_ctrls.bytes_read::cpu13.inst           448                       # Number of bytes read from this memory
system.mem_ctrls.bytes_read::cpu13.data          5696                       # Number of bytes read from this memory
system.mem_ctrls.bytes_read::cpu14.inst           640                       # Number of bytes read from this memory
system.mem_ctrls.bytes_read::cpu14.data          4288                       # Number of bytes read from this memory
system.mem_ctrls.bytes_read::cpu15.inst          2560                       # Number of bytes read from this memory
system.mem_ctrls.bytes_read::cpu15.data          5824                       # Number of bytes read from this memory
system.mem_ctrls.bytes_read::total             602432                       # Number of bytes read from this memory
system.mem_ctrls.bytes_inst_read::cpu00.inst       118656                       # Number of instructions bytes read from this memory
system.mem_ctrls.bytes_inst_read::cpu01.inst        11392                       # Number of instructions bytes read from this memory
system.mem_ctrls.bytes_inst_read::cpu02.inst         3968                       # Number of instructions bytes read from this memory
system.mem_ctrls.bytes_inst_read::cpu03.inst          640                       # Number of instructions bytes read from this memory
system.mem_ctrls.bytes_inst_read::cpu04.inst          320                       # Number of instructions bytes read from this memory
system.mem_ctrls.bytes_inst_read::cpu05.inst         2496                       # Number of instructions bytes read from this memory
system.mem_ctrls.bytes_inst_read::cpu06.inst          320                       # Number of instructions bytes read from this memory
system.mem_ctrls.bytes_inst_read::cpu07.inst         2048                       # Number of instructions bytes read from this memory
system.mem_ctrls.bytes_inst_read::cpu08.inst          512                       # Number of instructions bytes read from this memory
system.mem_ctrls.bytes_inst_read::cpu09.inst         1088                       # Number of instructions bytes read from this memory
system.mem_ctrls.bytes_inst_read::cpu10.inst         1408                       # Number of instructions bytes read from this memory
system.mem_ctrls.bytes_inst_read::cpu11.inst          768                       # Number of instructions bytes read from this memory
system.mem_ctrls.bytes_inst_read::cpu12.inst          768                       # Number of instructions bytes read from this memory
system.mem_ctrls.bytes_inst_read::cpu13.inst          448                       # Number of instructions bytes read from this memory
system.mem_ctrls.bytes_inst_read::cpu14.inst          640                       # Number of instructions bytes read from this memory
system.mem_ctrls.bytes_inst_read::cpu15.inst         2560                       # Number of instructions bytes read from this memory
system.mem_ctrls.bytes_inst_read::total        148032                       # Number of instructions bytes read from this memory
system.mem_ctrls.num_reads::cpu00.inst           1854                       # Number of read requests responded to by this memory
system.mem_ctrls.num_reads::cpu00.data           5881                       # Number of read requests responded to by this memory
system.mem_ctrls.num_reads::cpu01.inst            178                       # Number of read requests responded to by this memory
system.mem_ctrls.num_reads::cpu01.data             82                       # Number of read requests responded to by this memory
system.mem_ctrls.num_reads::cpu02.inst             62                       # Number of read requests responded to by this memory
system.mem_ctrls.num_reads::cpu02.data             79                       # Number of read requests responded to by this memory
system.mem_ctrls.num_reads::cpu03.inst             10                       # Number of read requests responded to by this memory
system.mem_ctrls.num_reads::cpu03.data             85                       # Number of read requests responded to by this memory
system.mem_ctrls.num_reads::cpu04.inst              5                       # Number of read requests responded to by this memory
system.mem_ctrls.num_reads::cpu04.data             70                       # Number of read requests responded to by this memory
system.mem_ctrls.num_reads::cpu05.inst             39                       # Number of read requests responded to by this memory
system.mem_ctrls.num_reads::cpu05.data             87                       # Number of read requests responded to by this memory
system.mem_ctrls.num_reads::cpu06.inst              5                       # Number of read requests responded to by this memory
system.mem_ctrls.num_reads::cpu06.data             85                       # Number of read requests responded to by this memory
system.mem_ctrls.num_reads::cpu07.inst             32                       # Number of read requests responded to by this memory
system.mem_ctrls.num_reads::cpu07.data             83                       # Number of read requests responded to by this memory
system.mem_ctrls.num_reads::cpu08.inst              8                       # Number of read requests responded to by this memory
system.mem_ctrls.num_reads::cpu08.data             69                       # Number of read requests responded to by this memory
system.mem_ctrls.num_reads::cpu09.inst             17                       # Number of read requests responded to by this memory
system.mem_ctrls.num_reads::cpu09.data             88                       # Number of read requests responded to by this memory
system.mem_ctrls.num_reads::cpu10.inst             22                       # Number of read requests responded to by this memory
system.mem_ctrls.num_reads::cpu10.data             89                       # Number of read requests responded to by this memory
system.mem_ctrls.num_reads::cpu11.inst             12                       # Number of read requests responded to by this memory
system.mem_ctrls.num_reads::cpu11.data             86                       # Number of read requests responded to by this memory
system.mem_ctrls.num_reads::cpu12.inst             12                       # Number of read requests responded to by this memory
system.mem_ctrls.num_reads::cpu12.data             69                       # Number of read requests responded to by this memory
system.mem_ctrls.num_reads::cpu13.inst              7                       # Number of read requests responded to by this memory
system.mem_ctrls.num_reads::cpu13.data             89                       # Number of read requests responded to by this memory
system.mem_ctrls.num_reads::cpu14.inst             10                       # Number of read requests responded to by this memory
system.mem_ctrls.num_reads::cpu14.data             67                       # Number of read requests responded to by this memory
system.mem_ctrls.num_reads::cpu15.inst             40                       # Number of read requests responded to by this memory
system.mem_ctrls.num_reads::cpu15.data             91                       # Number of read requests responded to by this memory
system.mem_ctrls.num_reads::total                9413                       # Number of read requests responded to by this memory
system.mem_ctrls.bw_read::cpu00.inst         92885817                       # Total read bandwidth from this memory (bytes/s)
system.mem_ctrls.bw_read::cpu00.data        294639424                       # Total read bandwidth from this memory (bytes/s)
system.mem_ctrls.bw_read::cpu01.inst          8917840                       # Total read bandwidth from this memory (bytes/s)
system.mem_ctrls.bw_read::cpu01.data          4108218                       # Total read bandwidth from this memory (bytes/s)
system.mem_ctrls.bw_read::cpu02.inst          3106214                       # Total read bandwidth from this memory (bytes/s)
system.mem_ctrls.bw_read::cpu02.data          3957918                       # Total read bandwidth from this memory (bytes/s)
system.mem_ctrls.bw_read::cpu03.inst           501002                       # Total read bandwidth from this memory (bytes/s)
system.mem_ctrls.bw_read::cpu03.data          4258519                       # Total read bandwidth from this memory (bytes/s)
system.mem_ctrls.bw_read::cpu04.inst           250501                       # Total read bandwidth from this memory (bytes/s)
system.mem_ctrls.bw_read::cpu04.data          3507016                       # Total read bandwidth from this memory (bytes/s)
system.mem_ctrls.bw_read::cpu05.inst          1953909                       # Total read bandwidth from this memory (bytes/s)
system.mem_ctrls.bw_read::cpu05.data          4358720                       # Total read bandwidth from this memory (bytes/s)
system.mem_ctrls.bw_read::cpu06.inst           250501                       # Total read bandwidth from this memory (bytes/s)
system.mem_ctrls.bw_read::cpu06.data          4258519                       # Total read bandwidth from this memory (bytes/s)
system.mem_ctrls.bw_read::cpu07.inst          1603207                       # Total read bandwidth from this memory (bytes/s)
system.mem_ctrls.bw_read::cpu07.data          4158319                       # Total read bandwidth from this memory (bytes/s)
system.mem_ctrls.bw_read::cpu08.inst           400802                       # Total read bandwidth from this memory (bytes/s)
system.mem_ctrls.bw_read::cpu08.data          3456916                       # Total read bandwidth from this memory (bytes/s)
system.mem_ctrls.bw_read::cpu09.inst           851704                       # Total read bandwidth from this memory (bytes/s)
system.mem_ctrls.bw_read::cpu09.data          4408820                       # Total read bandwidth from this memory (bytes/s)
system.mem_ctrls.bw_read::cpu10.inst          1102205                       # Total read bandwidth from this memory (bytes/s)
system.mem_ctrls.bw_read::cpu10.data          4458920                       # Total read bandwidth from this memory (bytes/s)
system.mem_ctrls.bw_read::cpu11.inst           601203                       # Total read bandwidth from this memory (bytes/s)
system.mem_ctrls.bw_read::cpu11.data          4308619                       # Total read bandwidth from this memory (bytes/s)
system.mem_ctrls.bw_read::cpu12.inst           601203                       # Total read bandwidth from this memory (bytes/s)
system.mem_ctrls.bw_read::cpu12.data          3456916                       # Total read bandwidth from this memory (bytes/s)
system.mem_ctrls.bw_read::cpu13.inst           350702                       # Total read bandwidth from this memory (bytes/s)
system.mem_ctrls.bw_read::cpu13.data          4458920                       # Total read bandwidth from this memory (bytes/s)
system.mem_ctrls.bw_read::cpu14.inst           501002                       # Total read bandwidth from this memory (bytes/s)
system.mem_ctrls.bw_read::cpu14.data          3356715                       # Total read bandwidth from this memory (bytes/s)
system.mem_ctrls.bw_read::cpu15.inst          2004009                       # Total read bandwidth from this memory (bytes/s)
system.mem_ctrls.bw_read::cpu15.data          4559120                       # Total read bandwidth from this memory (bytes/s)
system.mem_ctrls.bw_read::total             471593419                       # Total read bandwidth from this memory (bytes/s)
system.mem_ctrls.bw_inst_read::cpu00.inst     92885817                       # Instruction read bandwidth from this memory (bytes/s)
system.mem_ctrls.bw_inst_read::cpu01.inst      8917840                       # Instruction read bandwidth from this memory (bytes/s)
system.mem_ctrls.bw_inst_read::cpu02.inst      3106214                       # Instruction read bandwidth from this memory (bytes/s)
system.mem_ctrls.bw_inst_read::cpu03.inst       501002                       # Instruction read bandwidth from this memory (bytes/s)
system.mem_ctrls.bw_inst_read::cpu04.inst       250501                       # Instruction read bandwidth from this memory (bytes/s)
system.mem_ctrls.bw_inst_read::cpu05.inst      1953909                       # Instruction read bandwidth from this memory (bytes/s)
system.mem_ctrls.bw_inst_read::cpu06.inst       250501                       # Instruction read bandwidth from this memory (bytes/s)
system.mem_ctrls.bw_inst_read::cpu07.inst      1603207                       # Instruction read bandwidth from this memory (bytes/s)
system.mem_ctrls.bw_inst_read::cpu08.inst       400802                       # Instruction read bandwidth from this memory (bytes/s)
system.mem_ctrls.bw_inst_read::cpu09.inst       851704                       # Instruction read bandwidth from this memory (bytes/s)
system.mem_ctrls.bw_inst_read::cpu10.inst      1102205                       # Instruction read bandwidth from this memory (bytes/s)
system.mem_ctrls.bw_inst_read::cpu11.inst       601203                       # Instruction read bandwidth from this memory (bytes/s)
system.mem_ctrls.bw_inst_read::cpu12.inst       601203                       # Instruction read bandwidth from this memory (bytes/s)
system.mem_ctrls.bw_inst_read::cpu13.inst       350702                       # Instruction read bandwidth from this memory (bytes/s)
system.mem_ctrls.bw_inst_read::cpu14.inst       501002                       # Instruction read bandwidth from this memory (bytes/s)
system.mem_ctrls.bw_inst_read::cpu15.inst      2004009                       # Instruction read bandwidth from this memory (bytes/s)
system.mem_ctrls.bw_inst_read::total        115881821                       # Instruction read bandwidth from this memory (bytes/s)
system.mem_ctrls.bw_total::cpu00.inst        92885817                       # Total bandwidth to/from this memory (bytes/s)
system.mem_ctrls.bw_total::cpu00.data       294639424                       # Total bandwidth to/from this memory (bytes/s)
system.mem_ctrls.bw_total::cpu01.inst         8917840                       # Total bandwidth to/from this memory (bytes/s)
system.mem_ctrls.bw_total::cpu01.data         4108218                       # Total bandwidth to/from this memory (bytes/s)
system.mem_ctrls.bw_total::cpu02.inst         3106214                       # Total bandwidth to/from this memory (bytes/s)
system.mem_ctrls.bw_total::cpu02.data         3957918                       # Total bandwidth to/from this memory (bytes/s)
system.mem_ctrls.bw_total::cpu03.inst          501002                       # Total bandwidth to/from this memory (bytes/s)
system.mem_ctrls.bw_total::cpu03.data         4258519                       # Total bandwidth to/from this memory (bytes/s)
system.mem_ctrls.bw_total::cpu04.inst          250501                       # Total bandwidth to/from this memory (bytes/s)
system.mem_ctrls.bw_total::cpu04.data         3507016                       # Total bandwidth to/from this memory (bytes/s)
system.mem_ctrls.bw_total::cpu05.inst         1953909                       # Total bandwidth to/from this memory (bytes/s)
system.mem_ctrls.bw_total::cpu05.data         4358720                       # Total bandwidth to/from this memory (bytes/s)
system.mem_ctrls.bw_total::cpu06.inst          250501                       # Total bandwidth to/from this memory (bytes/s)
system.mem_ctrls.bw_total::cpu06.data         4258519                       # Total bandwidth to/from this memory (bytes/s)
system.mem_ctrls.bw_total::cpu07.inst         1603207                       # Total bandwidth to/from this memory (bytes/s)
system.mem_ctrls.bw_total::cpu07.data         4158319                       # Total bandwidth to/from this memory (bytes/s)
system.mem_ctrls.bw_total::cpu08.inst          400802                       # Total bandwidth to/from this memory (bytes/s)
system.mem_ctrls.bw_total::cpu08.data         3456916                       # Total bandwidth to/from this memory (bytes/s)
system.mem_ctrls.bw_total::cpu09.inst          851704                       # Total bandwidth to/from this memory (bytes/s)
system.mem_ctrls.bw_total::cpu09.data         4408820                       # Total bandwidth to/from this memory (bytes/s)
system.mem_ctrls.bw_total::cpu10.inst         1102205                       # Total bandwidth to/from this memory (bytes/s)
system.mem_ctrls.bw_total::cpu10.data         4458920                       # Total bandwidth to/from this memory (bytes/s)
system.mem_ctrls.bw_total::cpu11.inst          601203                       # Total bandwidth to/from this memory (bytes/s)
system.mem_ctrls.bw_total::cpu11.data         4308619                       # Total bandwidth to/from this memory (bytes/s)
system.mem_ctrls.bw_total::cpu12.inst          601203                       # Total bandwidth to/from this memory (bytes/s)
system.mem_ctrls.bw_total::cpu12.data         3456916                       # Total bandwidth to/from this memory (bytes/s)
system.mem_ctrls.bw_total::cpu13.inst          350702                       # Total bandwidth to/from this memory (bytes/s)
system.mem_ctrls.bw_total::cpu13.data         4458920                       # Total bandwidth to/from this memory (bytes/s)
system.mem_ctrls.bw_total::cpu14.inst          501002                       # Total bandwidth to/from this memory (bytes/s)
system.mem_ctrls.bw_total::cpu14.data         3356715                       # Total bandwidth to/from this memory (bytes/s)
system.mem_ctrls.bw_total::cpu15.inst         2004009                       # Total bandwidth to/from this memory (bytes/s)
system.mem_ctrls.bw_total::cpu15.data         4559120                       # Total bandwidth to/from this memory (bytes/s)
system.mem_ctrls.bw_total::total            471593419                       # Total bandwidth to/from this memory (bytes/s)
system.cpu00.branchPred.lookups                132831                       # Number of BP lookups
system.cpu00.branchPred.condPredicted           73984                       # Number of conditional branches predicted
system.cpu00.branchPred.condIncorrect            5701                       # Number of conditional branches incorrect
system.cpu00.branchPred.BTBLookups              88809                       # Number of BTB lookups
system.cpu00.branchPred.BTBHits                 66577                       # Number of BTB hits
system.cpu00.branchPred.BTBCorrect                  0                       # Number of correct BTB predictions (this stat may not work properly.
system.cpu00.branchPred.BTBHitPct           74.966501                       # BTB Hit Percentage
system.cpu00.branchPred.usedRAS                 26561                       # Number of times the RAS was used to get a target.
system.cpu00.branchPred.RASInCorrect               86                       # Number of incorrect RAS predictions.
system.cpu00.branchPred.indirectLookups          3653                       # Number of indirect predictor lookups.
system.cpu00.branchPred.indirectHits             2897                       # Number of indirect target hits.
system.cpu00.branchPred.indirectMisses            756                       # Number of indirect misses.
system.cpu00.branchPredindirectMispredicted          255                       # Number of mispredicted indirect branches.
system.cpu_voltage_domain.voltage                   1                       # Voltage in Volts
system.cpu_clk_domain.clock                      1159                       # Clock period in ticks
system.cpu00.dtb.fetch_hits                         0                       # ITB hits
system.cpu00.dtb.fetch_misses                       0                       # ITB misses
system.cpu00.dtb.fetch_acv                          0                       # ITB acv
system.cpu00.dtb.fetch_accesses                     0                       # ITB accesses
system.cpu00.dtb.read_hits                     182759                       # DTB read hits
system.cpu00.dtb.read_misses                      622                       # DTB read misses
system.cpu00.dtb.read_acv                           0                       # DTB read access violations
system.cpu00.dtb.read_accesses                 183381                       # DTB read accesses
system.cpu00.dtb.write_hits                    127743                       # DTB write hits
system.cpu00.dtb.write_misses                    1106                       # DTB write misses
system.cpu00.dtb.write_acv                          0                       # DTB write access violations
system.cpu00.dtb.write_accesses                128849                       # DTB write accesses
system.cpu00.dtb.data_hits                     310502                       # DTB hits
system.cpu00.dtb.data_misses                     1728                       # DTB misses
system.cpu00.dtb.data_acv                           0                       # DTB access violations
system.cpu00.dtb.data_accesses                 312230                       # DTB accesses
system.cpu00.itb.fetch_hits                    149537                       # ITB hits
system.cpu00.itb.fetch_misses                     154                       # ITB misses
system.cpu00.itb.fetch_acv                          0                       # ITB acv
system.cpu00.itb.fetch_accesses                149691                       # ITB accesses
system.cpu00.itb.read_hits                          0                       # DTB read hits
system.cpu00.itb.read_misses                        0                       # DTB read misses
system.cpu00.itb.read_acv                           0                       # DTB read access violations
system.cpu00.itb.read_accesses                      0                       # DTB read accesses
system.cpu00.itb.write_hits                         0                       # DTB write hits
system.cpu00.itb.write_misses                       0                       # DTB write misses
system.cpu00.itb.write_acv                          0                       # DTB write access violations
system.cpu00.itb.write_accesses                     0                       # DTB write accesses
system.cpu00.itb.data_hits                          0                       # DTB hits
system.cpu00.itb.data_misses                        0                       # DTB misses
system.cpu00.itb.data_acv                           0                       # DTB access violations
system.cpu00.itb.data_accesses                      0                       # DTB accesses
system.cpu00.workload.num_syscalls               1987                       # Number of system calls
system.cpu00.numCycles                        1033008                       # number of cpu cycles simulated
system.cpu00.numWorkItemsStarted                    0                       # number of work items this cpu started
system.cpu00.numWorkItemsCompleted                  0                       # number of work items this cpu completed
system.cpu00.fetch.icacheStallCycles            87381                       # Number of cycles fetch is stalled on an Icache miss
system.cpu00.fetch.Insts                      1191685                       # Number of instructions fetch has processed
system.cpu00.fetch.Branches                    132831                       # Number of branches that fetch encountered
system.cpu00.fetch.predictedBranches            96035                       # Number of branches that fetch has predicted taken
system.cpu00.fetch.Cycles                      730358                       # Number of cycles fetch has run and was not squashing or blocked
system.cpu00.fetch.SquashCycles                 12778                       # Number of cycles fetch has spent squashing
system.cpu00.fetch.MiscStallCycles                564                       # Number of cycles fetch has spent waiting on interrupts, or bad addresses, or out of MSHRs
system.cpu00.fetch.PendingTrapStallCycles         6379                       # Number of stall cycles due to pending traps
system.cpu00.fetch.IcacheWaitRetryStallCycles          703                       # Number of stall cycles due to full MSHR
system.cpu00.fetch.CacheLines                  149537                       # Number of cache lines fetched
system.cpu00.fetch.IcacheSquashes                2711                       # Number of outstanding Icache misses that were squashed
system.cpu00.fetch.rateDist::samples           831774                       # Number of instructions fetched each cycle (Total)
system.cpu00.fetch.rateDist::mean            1.432703                       # Number of instructions fetched each cycle (Total)
system.cpu00.fetch.rateDist::stdev           2.706009                       # Number of instructions fetched each cycle (Total)
system.cpu00.fetch.rateDist::underflows             0      0.00%      0.00% # Number of instructions fetched each cycle (Total)
system.cpu00.fetch.rateDist::0                 613373     73.74%     73.74% # Number of instructions fetched each cycle (Total)
system.cpu00.fetch.rateDist::1                  16474      1.98%     75.72% # Number of instructions fetched each cycle (Total)
system.cpu00.fetch.rateDist::2                  17638      2.12%     77.84% # Number of instructions fetched each cycle (Total)
system.cpu00.fetch.rateDist::3                  17115      2.06%     79.90% # Number of instructions fetched each cycle (Total)
system.cpu00.fetch.rateDist::4                  38113      4.58%     84.48% # Number of instructions fetched each cycle (Total)
system.cpu00.fetch.rateDist::5                  15807      1.90%     86.38% # Number of instructions fetched each cycle (Total)
system.cpu00.fetch.rateDist::6                  18806      2.26%     88.64% # Number of instructions fetched each cycle (Total)
system.cpu00.fetch.rateDist::7                  11317      1.36%     90.01% # Number of instructions fetched each cycle (Total)
system.cpu00.fetch.rateDist::8                  83131      9.99%    100.00% # Number of instructions fetched each cycle (Total)
system.cpu00.fetch.rateDist::overflows              0      0.00%    100.00% # Number of instructions fetched each cycle (Total)
system.cpu00.fetch.rateDist::min_value              0                       # Number of instructions fetched each cycle (Total)
system.cpu00.fetch.rateDist::max_value              8                       # Number of instructions fetched each cycle (Total)
system.cpu00.fetch.rateDist::total             831774                       # Number of instructions fetched each cycle (Total)
system.cpu00.fetch.branchRate                0.128587                       # Number of branch fetches per cycle
system.cpu00.fetch.rate                      1.153607                       # Number of inst fetches per cycle
system.cpu00.decode.IdleCycles                  93658                       # Number of cycles decode is idle
system.cpu00.decode.BlockedCycles              570412                       # Number of cycles decode is blocked
system.cpu00.decode.RunCycles                  129365                       # Number of cycles decode is running
system.cpu00.decode.UnblockCycles               33681                       # Number of cycles decode is unblocking
system.cpu00.decode.SquashCycles                 4658                       # Number of cycles decode is squashing
system.cpu00.decode.BranchResolved              26497                       # Number of times decode resolved a branch
system.cpu00.decode.BranchMispred                1768                       # Number of times decode detected a branch misprediction
system.cpu00.decode.DecodedInsts              1126154                       # Number of instructions handled by decode
system.cpu00.decode.SquashedInsts                7323                       # Number of squashed instructions handled by decode
system.cpu00.rename.SquashCycles                 4658                       # Number of cycles rename is squashing
system.cpu00.rename.IdleCycles                 109636                       # Number of cycles rename is idle
system.cpu00.rename.BlockCycles                 98775                       # Number of cycles rename is blocking
system.cpu00.rename.serializeStallCycles       220796                       # count of cycles rename stalled for serializing inst
system.cpu00.rename.RunCycles                  147174                       # Number of cycles rename is running
system.cpu00.rename.UnblockCycles              250735                       # Number of cycles rename is unblocking
system.cpu00.rename.RenamedInsts              1106730                       # Number of instructions processed by rename
system.cpu00.rename.ROBFullEvents                2884                       # Number of times rename has blocked due to ROB full
system.cpu00.rename.IQFullEvents                22831                       # Number of times rename has blocked due to IQ full
system.cpu00.rename.LQFullEvents                 2089                       # Number of times rename has blocked due to LQ full
system.cpu00.rename.SQFullEvents               215310                       # Number of times rename has blocked due to SQ full
system.cpu00.rename.RenamedOperands            758705                       # Number of destination operands rename has renamed
system.cpu00.rename.RenameLookups             1370190                       # Number of register rename lookups that rename has made
system.cpu00.rename.int_rename_lookups        1211967                       # Number of integer rename lookups
system.cpu00.rename.fp_rename_lookups          155936                       # Number of floating rename lookups
system.cpu00.rename.CommittedMaps              668919                       # Number of HB maps that are committed
system.cpu00.rename.UndoneMaps                  89786                       # Number of HB maps that are undone due to squashing
system.cpu00.rename.serializingInsts             4032                       # count of serializing insts renamed
system.cpu00.rename.tempSerializingInsts         1664                       # count of temporary serializing insts renamed
system.cpu00.rename.skidInsts                  150690                       # count of insts added to the skid buffer
system.cpu00.memDep0.insertedLoads             179974                       # Number of loads inserted to the mem dependence unit.
system.cpu00.memDep0.insertedStores            135334                       # Number of stores inserted to the mem dependence unit.
system.cpu00.memDep0.conflictingLoads           32336                       # Number of conflicting loads.
system.cpu00.memDep0.conflictingStores          12547                       # Number of conflicting stores.
system.cpu00.iq.iqInstsAdded                   969654                       # Number of instructions added to the IQ (excludes non-spec)
system.cpu00.iq.iqNonSpecInstsAdded              2748                       # Number of non-speculative instructions added to the IQ
system.cpu00.iq.iqInstsIssued                  954228                       # Number of instructions issued
system.cpu00.iq.iqSquashedInstsIssued            1953                       # Number of squashed instructions issued
system.cpu00.iq.iqSquashedInstsExamined        102390                       # Number of squashed instructions iterated over during squash; mainly for profiling
system.cpu00.iq.iqSquashedOperandsExamined        51958                       # Number of squashed operands that are examined and possibly removed from graph
system.cpu00.iq.iqSquashedNonSpecRemoved          372                       # Number of squashed non-spec instructions that were removed
system.cpu00.iq.issued_per_cycle::samples       831774                       # Number of insts issued each cycle
system.cpu00.iq.issued_per_cycle::mean       1.147220                       # Number of insts issued each cycle
system.cpu00.iq.issued_per_cycle::stdev      1.918123                       # Number of insts issued each cycle
system.cpu00.iq.issued_per_cycle::underflows            0      0.00%      0.00% # Number of insts issued each cycle
system.cpu00.iq.issued_per_cycle::0            531316     63.88%     63.88% # Number of insts issued each cycle
system.cpu00.iq.issued_per_cycle::1             75243      9.05%     72.92% # Number of insts issued each cycle
system.cpu00.iq.issued_per_cycle::2             61569      7.40%     80.33% # Number of insts issued each cycle
system.cpu00.iq.issued_per_cycle::3             45484      5.47%     85.79% # Number of insts issued each cycle
system.cpu00.iq.issued_per_cycle::4             43740      5.26%     91.05% # Number of insts issued each cycle
system.cpu00.iq.issued_per_cycle::5             28612      3.44%     94.49% # Number of insts issued each cycle
system.cpu00.iq.issued_per_cycle::6             26843      3.23%     97.72% # Number of insts issued each cycle
system.cpu00.iq.issued_per_cycle::7             11419      1.37%     99.09% # Number of insts issued each cycle
system.cpu00.iq.issued_per_cycle::8              7548      0.91%    100.00% # Number of insts issued each cycle
system.cpu00.iq.issued_per_cycle::overflows            0      0.00%    100.00% # Number of insts issued each cycle
system.cpu00.iq.issued_per_cycle::min_value            0                       # Number of insts issued each cycle
system.cpu00.iq.issued_per_cycle::max_value            8                       # Number of insts issued each cycle
system.cpu00.iq.issued_per_cycle::total        831774                       # Number of insts issued each cycle
system.cpu00.iq.fu_full::No_OpClass                 0      0.00%      0.00% # attempts to use FU when none available
system.cpu00.iq.fu_full::IntAlu                  4945     15.84%     15.84% # attempts to use FU when none available
system.cpu00.iq.fu_full::IntMult                 4097     13.12%     28.95% # attempts to use FU when none available
system.cpu00.iq.fu_full::IntDiv                     0      0.00%     28.95% # attempts to use FU when none available
system.cpu00.iq.fu_full::FloatAdd                  87      0.28%     29.23% # attempts to use FU when none available
system.cpu00.iq.fu_full::FloatCmp                   0      0.00%     29.23% # attempts to use FU when none available
system.cpu00.iq.fu_full::FloatCvt                   0      0.00%     29.23% # attempts to use FU when none available
system.cpu00.iq.fu_full::FloatMult               5846     18.72%     47.95% # attempts to use FU when none available
system.cpu00.iq.fu_full::FloatDiv                   0      0.00%     47.95% # attempts to use FU when none available
system.cpu00.iq.fu_full::FloatSqrt                  0      0.00%     47.95% # attempts to use FU when none available
system.cpu00.iq.fu_full::SimdAdd                    0      0.00%     47.95% # attempts to use FU when none available
system.cpu00.iq.fu_full::SimdAddAcc                 0      0.00%     47.95% # attempts to use FU when none available
system.cpu00.iq.fu_full::SimdAlu                    0      0.00%     47.95% # attempts to use FU when none available
system.cpu00.iq.fu_full::SimdCmp                    0      0.00%     47.95% # attempts to use FU when none available
system.cpu00.iq.fu_full::SimdCvt                    0      0.00%     47.95% # attempts to use FU when none available
system.cpu00.iq.fu_full::SimdMisc                   0      0.00%     47.95% # attempts to use FU when none available
system.cpu00.iq.fu_full::SimdMult                   0      0.00%     47.95% # attempts to use FU when none available
system.cpu00.iq.fu_full::SimdMultAcc                0      0.00%     47.95% # attempts to use FU when none available
system.cpu00.iq.fu_full::SimdShift                  0      0.00%     47.95% # attempts to use FU when none available
system.cpu00.iq.fu_full::SimdShiftAcc               0      0.00%     47.95% # attempts to use FU when none available
system.cpu00.iq.fu_full::SimdSqrt                   0      0.00%     47.95% # attempts to use FU when none available
system.cpu00.iq.fu_full::SimdFloatAdd               0      0.00%     47.95% # attempts to use FU when none available
system.cpu00.iq.fu_full::SimdFloatAlu               0      0.00%     47.95% # attempts to use FU when none available
system.cpu00.iq.fu_full::SimdFloatCmp               0      0.00%     47.95% # attempts to use FU when none available
system.cpu00.iq.fu_full::SimdFloatCvt               0      0.00%     47.95% # attempts to use FU when none available
system.cpu00.iq.fu_full::SimdFloatDiv               0      0.00%     47.95% # attempts to use FU when none available
system.cpu00.iq.fu_full::SimdFloatMisc              0      0.00%     47.95% # attempts to use FU when none available
system.cpu00.iq.fu_full::SimdFloatMult              0      0.00%     47.95% # attempts to use FU when none available
system.cpu00.iq.fu_full::SimdFloatMultAcc            0      0.00%     47.95% # attempts to use FU when none available
system.cpu00.iq.fu_full::SimdFloatSqrt              0      0.00%     47.95% # attempts to use FU when none available
system.cpu00.iq.fu_full::MemRead                 9965     31.91%     79.86% # attempts to use FU when none available
system.cpu00.iq.fu_full::MemWrite                6288     20.14%    100.00% # attempts to use FU when none available
system.cpu00.iq.fu_full::IprAccess                  0      0.00%    100.00% # attempts to use FU when none available
system.cpu00.iq.fu_full::InstPrefetch               0      0.00%    100.00% # attempts to use FU when none available
system.cpu00.iq.FU_type_0::No_OpClass               0      0.00%      0.00% # Type of FU issued
system.cpu00.iq.FU_type_0::IntAlu              551543     57.80%     57.80% # Type of FU issued
system.cpu00.iq.FU_type_0::IntMult              12789      1.34%     59.14% # Type of FU issued
system.cpu00.iq.FU_type_0::IntDiv                   0      0.00%     59.14% # Type of FU issued
system.cpu00.iq.FU_type_0::FloatAdd             35724      3.74%     62.88% # Type of FU issued
system.cpu00.iq.FU_type_0::FloatCmp                 8      0.00%     62.88% # Type of FU issued
system.cpu00.iq.FU_type_0::FloatCvt                 0      0.00%     62.88% # Type of FU issued
system.cpu00.iq.FU_type_0::FloatMult            37109      3.89%     66.77% # Type of FU issued
system.cpu00.iq.FU_type_0::FloatDiv                15      0.00%     66.78% # Type of FU issued
system.cpu00.iq.FU_type_0::FloatSqrt                0      0.00%     66.78% # Type of FU issued
system.cpu00.iq.FU_type_0::SimdAdd                  0      0.00%     66.78% # Type of FU issued
system.cpu00.iq.FU_type_0::SimdAddAcc               0      0.00%     66.78% # Type of FU issued
system.cpu00.iq.FU_type_0::SimdAlu                  0      0.00%     66.78% # Type of FU issued
system.cpu00.iq.FU_type_0::SimdCmp                  0      0.00%     66.78% # Type of FU issued
system.cpu00.iq.FU_type_0::SimdCvt                  0      0.00%     66.78% # Type of FU issued
system.cpu00.iq.FU_type_0::SimdMisc                 0      0.00%     66.78% # Type of FU issued
system.cpu00.iq.FU_type_0::SimdMult                 0      0.00%     66.78% # Type of FU issued
system.cpu00.iq.FU_type_0::SimdMultAcc              0      0.00%     66.78% # Type of FU issued
system.cpu00.iq.FU_type_0::SimdShift                0      0.00%     66.78% # Type of FU issued
system.cpu00.iq.FU_type_0::SimdShiftAcc             0      0.00%     66.78% # Type of FU issued
system.cpu00.iq.FU_type_0::SimdSqrt                 0      0.00%     66.78% # Type of FU issued
system.cpu00.iq.FU_type_0::SimdFloatAdd             0      0.00%     66.78% # Type of FU issued
system.cpu00.iq.FU_type_0::SimdFloatAlu             0      0.00%     66.78% # Type of FU issued
system.cpu00.iq.FU_type_0::SimdFloatCmp             0      0.00%     66.78% # Type of FU issued
system.cpu00.iq.FU_type_0::SimdFloatCvt             0      0.00%     66.78% # Type of FU issued
system.cpu00.iq.FU_type_0::SimdFloatDiv             0      0.00%     66.78% # Type of FU issued
system.cpu00.iq.FU_type_0::SimdFloatMisc            0      0.00%     66.78% # Type of FU issued
system.cpu00.iq.FU_type_0::SimdFloatMult            0      0.00%     66.78% # Type of FU issued
system.cpu00.iq.FU_type_0::SimdFloatMultAcc            0      0.00%     66.78% # Type of FU issued
system.cpu00.iq.FU_type_0::SimdFloatSqrt            0      0.00%     66.78% # Type of FU issued
system.cpu00.iq.FU_type_0::MemRead             186619     19.56%     86.33% # Type of FU issued
system.cpu00.iq.FU_type_0::MemWrite            130421     13.67%    100.00% # Type of FU issued
system.cpu00.iq.FU_type_0::IprAccess                0      0.00%    100.00% # Type of FU issued
system.cpu00.iq.FU_type_0::InstPrefetch             0      0.00%    100.00% # Type of FU issued
system.cpu00.iq.FU_type_0::total               954228                       # Type of FU issued
system.cpu00.iq.rate                         0.923737                       # Inst issue rate
system.cpu00.iq.fu_busy_cnt                     31228                       # FU busy when requested
system.cpu00.iq.fu_busy_rate                 0.032726                       # FU busy rate (busy events/executed inst)
system.cpu00.iq.int_inst_queue_reads          2529830                       # Number of integer instruction queue reads
system.cpu00.iq.int_inst_queue_writes          951770                       # Number of integer instruction queue writes
system.cpu00.iq.int_inst_queue_wakeup_accesses       814231                       # Number of integer instruction queue wakeup accesses
system.cpu00.iq.fp_inst_queue_reads            243581                       # Number of floating instruction queue reads
system.cpu00.iq.fp_inst_queue_writes           123448                       # Number of floating instruction queue writes
system.cpu00.iq.fp_inst_queue_wakeup_accesses       117014                       # Number of floating instruction queue wakeup accesses
system.cpu00.iq.int_alu_accesses               860356                       # Number of integer alu accesses
system.cpu00.iq.fp_alu_accesses                125100                       # Number of floating point alu accesses
system.cpu00.iew.lsq.thread0.forwLoads          21297                       # Number of loads that had data forwarded from stores
system.cpu00.iew.lsq.thread0.invAddrLoads            0                       # Number of loads ignored due to an invalid address
system.cpu00.iew.lsq.thread0.squashedLoads        18977                       # Number of loads squashed
system.cpu00.iew.lsq.thread0.ignoredResponses           84                       # Number of memory responses ignored because the instruction is squashed
system.cpu00.iew.lsq.thread0.memOrderViolation          437                       # Number of memory ordering violations
system.cpu00.iew.lsq.thread0.squashedStores        15807                       # Number of stores squashed
system.cpu00.iew.lsq.thread0.invAddrSwpfs            0                       # Number of software prefetches ignored due to an invalid address
system.cpu00.iew.lsq.thread0.blockedLoads            0                       # Number of blocked loads due to partial load-store forwarding
system.cpu00.iew.lsq.thread0.rescheduledLoads          213                       # Number of loads that were rescheduled
system.cpu00.iew.lsq.thread0.cacheBlocked        11724                       # Number of times an access to memory failed due to the cache being blocked
system.cpu00.iew.iewIdleCycles                      0                       # Number of cycles IEW is idle
system.cpu00.iew.iewSquashCycles                 4658                       # Number of cycles IEW is squashing
system.cpu00.iew.iewBlockCycles                 23594                       # Number of cycles IEW is blocking
system.cpu00.iew.iewUnblockCycles               65514                       # Number of cycles IEW is unblocking
system.cpu00.iew.iewDispatchedInsts           1080144                       # Number of instructions dispatched to IQ
system.cpu00.iew.iewDispSquashedInsts            1388                       # Number of squashed instructions skipped by dispatch
system.cpu00.iew.iewDispLoadInsts              179974                       # Number of dispatched load instructions
system.cpu00.iew.iewDispStoreInsts             135334                       # Number of dispatched store instructions
system.cpu00.iew.iewDispNonSpecInsts             1578                       # Number of dispatched non-speculative instructions
system.cpu00.iew.iewIQFullEvents                  162                       # Number of times the IQ has become full, causing a stall
system.cpu00.iew.iewLSQFullEvents               65256                       # Number of times the LSQ has become full, causing a stall
system.cpu00.iew.memOrderViolationEvents          437                       # Number of memory order violations
system.cpu00.iew.predictedTakenIncorrect         1603                       # Number of branches that were predicted taken incorrectly
system.cpu00.iew.predictedNotTakenIncorrect         3113                       # Number of branches that were predicted not taken incorrectly
system.cpu00.iew.branchMispredicts               4716                       # Number of branch mispredicts detected at execute
system.cpu00.iew.iewExecutedInsts              946726                       # Number of executed instructions
system.cpu00.iew.iewExecLoadInsts              183399                       # Number of load instructions executed
system.cpu00.iew.iewExecSquashedInsts            7502                       # Number of squashed instructions skipped in execute
system.cpu00.iew.exec_swp                           0                       # number of swp insts executed
system.cpu00.iew.exec_nop                      107742                       # number of nop insts executed
system.cpu00.iew.exec_refs                     312255                       # number of memory reference insts executed
system.cpu00.iew.exec_branches                 110497                       # Number of branches executed
system.cpu00.iew.exec_stores                   128856                       # Number of stores executed
system.cpu00.iew.exec_rate                   0.916475                       # Inst execution rate
system.cpu00.iew.wb_sent                       934786                       # cumulative count of insts sent to commit
system.cpu00.iew.wb_count                      931245                       # cumulative count of insts written-back
system.cpu00.iew.wb_producers                  545461                       # num instructions producing a value
system.cpu00.iew.wb_consumers                  777172                       # num instructions consuming a value
system.cpu00.iew.wb_rate                     0.901489                       # insts written-back per cycle
system.cpu00.iew.wb_fanout                   0.701854                       # average fanout of values written-back
system.cpu00.commit.commitSquashedInsts        107122                       # The number of squashed insts skipped by commit
system.cpu00.commit.commitNonSpecStalls          2376                       # The number of times commit has been forced to stall to communicate backwards
system.cpu00.commit.branchMispredicts            3970                       # The number of times a branch was mispredicted
system.cpu00.commit.committed_per_cycle::samples       814910                       # Number of insts commited each cycle
system.cpu00.commit.committed_per_cycle::mean     1.188677                       # Number of insts commited each cycle
system.cpu00.commit.committed_per_cycle::stdev     2.291930                       # Number of insts commited each cycle
system.cpu00.commit.committed_per_cycle::underflows            0      0.00%      0.00% # Number of insts commited each cycle
system.cpu00.commit.committed_per_cycle::0       566517     69.52%     69.52% # Number of insts commited each cycle
system.cpu00.commit.committed_per_cycle::1        51677      6.34%     75.86% # Number of insts commited each cycle
system.cpu00.commit.committed_per_cycle::2        51232      6.29%     82.15% # Number of insts commited each cycle
system.cpu00.commit.committed_per_cycle::3        29979      3.68%     85.83% # Number of insts commited each cycle
system.cpu00.commit.committed_per_cycle::4        35510      4.36%     90.18% # Number of insts commited each cycle
system.cpu00.commit.committed_per_cycle::5         8889      1.09%     91.27% # Number of insts commited each cycle
system.cpu00.commit.committed_per_cycle::6        12853      1.58%     92.85% # Number of insts commited each cycle
system.cpu00.commit.committed_per_cycle::7         5040      0.62%     93.47% # Number of insts commited each cycle
system.cpu00.commit.committed_per_cycle::8        53213      6.53%    100.00% # Number of insts commited each cycle
system.cpu00.commit.committed_per_cycle::overflows            0      0.00%    100.00% # Number of insts commited each cycle
system.cpu00.commit.committed_per_cycle::min_value            0                       # Number of insts commited each cycle
system.cpu00.commit.committed_per_cycle::max_value            8                       # Number of insts commited each cycle
system.cpu00.commit.committed_per_cycle::total       814910                       # Number of insts commited each cycle
system.cpu00.commit.committedInsts             968665                       # Number of instructions committed
system.cpu00.commit.committedOps               968665                       # Number of ops (including micro ops) committed
system.cpu00.commit.swp_count                       0                       # Number of s/w prefetches committed
system.cpu00.commit.refs                       280524                       # Number of memory references committed
system.cpu00.commit.loads                      160997                       # Number of loads committed
system.cpu00.commit.membars                      1038                       # Number of memory barriers committed
system.cpu00.commit.branches                   100146                       # Number of branches committed
system.cpu00.commit.fp_insts                   116058                       # Number of committed floating point instructions.
system.cpu00.commit.int_insts                  792139                       # Number of committed integer instructions.
system.cpu00.commit.function_calls              22222                       # Number of function calls committed.
system.cpu00.commit.op_class_0::No_OpClass        98654     10.18%     10.18% # Class of committed instruction
system.cpu00.commit.op_class_0::IntAlu         503322     51.96%     62.14% # Class of committed instruction
system.cpu00.commit.op_class_0::IntMult         12689      1.31%     63.45% # Class of committed instruction
system.cpu00.commit.op_class_0::IntDiv              0      0.00%     63.45% # Class of committed instruction
system.cpu00.commit.op_class_0::FloatAdd        35480      3.66%     67.12% # Class of committed instruction
system.cpu00.commit.op_class_0::FloatCmp            8      0.00%     67.12% # Class of committed instruction
system.cpu00.commit.op_class_0::FloatCvt            0      0.00%     67.12% # Class of committed instruction
system.cpu00.commit.op_class_0::FloatMult        36935      3.81%     70.93% # Class of committed instruction
system.cpu00.commit.op_class_0::FloatDiv           14      0.00%     70.93% # Class of committed instruction
system.cpu00.commit.op_class_0::FloatSqrt            0      0.00%     70.93% # Class of committed instruction
system.cpu00.commit.op_class_0::SimdAdd             0      0.00%     70.93% # Class of committed instruction
system.cpu00.commit.op_class_0::SimdAddAcc            0      0.00%     70.93% # Class of committed instruction
system.cpu00.commit.op_class_0::SimdAlu             0      0.00%     70.93% # Class of committed instruction
system.cpu00.commit.op_class_0::SimdCmp             0      0.00%     70.93% # Class of committed instruction
system.cpu00.commit.op_class_0::SimdCvt             0      0.00%     70.93% # Class of committed instruction
system.cpu00.commit.op_class_0::SimdMisc            0      0.00%     70.93% # Class of committed instruction
system.cpu00.commit.op_class_0::SimdMult            0      0.00%     70.93% # Class of committed instruction
system.cpu00.commit.op_class_0::SimdMultAcc            0      0.00%     70.93% # Class of committed instruction
system.cpu00.commit.op_class_0::SimdShift            0      0.00%     70.93% # Class of committed instruction
system.cpu00.commit.op_class_0::SimdShiftAcc            0      0.00%     70.93% # Class of committed instruction
system.cpu00.commit.op_class_0::SimdSqrt            0      0.00%     70.93% # Class of committed instruction
system.cpu00.commit.op_class_0::SimdFloatAdd            0      0.00%     70.93% # Class of committed instruction
system.cpu00.commit.op_class_0::SimdFloatAlu            0      0.00%     70.93% # Class of committed instruction
system.cpu00.commit.op_class_0::SimdFloatCmp            0      0.00%     70.93% # Class of committed instruction
system.cpu00.commit.op_class_0::SimdFloatCvt            0      0.00%     70.93% # Class of committed instruction
system.cpu00.commit.op_class_0::SimdFloatDiv            0      0.00%     70.93% # Class of committed instruction
system.cpu00.commit.op_class_0::SimdFloatMisc            0      0.00%     70.93% # Class of committed instruction
system.cpu00.commit.op_class_0::SimdFloatMult            0      0.00%     70.93% # Class of committed instruction
system.cpu00.commit.op_class_0::SimdFloatMultAcc            0      0.00%     70.93% # Class of committed instruction
system.cpu00.commit.op_class_0::SimdFloatSqrt            0      0.00%     70.93% # Class of committed instruction
system.cpu00.commit.op_class_0::MemRead        162035     16.73%     87.66% # Class of committed instruction
system.cpu00.commit.op_class_0::MemWrite       119528     12.34%    100.00% # Class of committed instruction
system.cpu00.commit.op_class_0::IprAccess            0      0.00%    100.00% # Class of committed instruction
system.cpu00.commit.op_class_0::InstPrefetch            0      0.00%    100.00% # Class of committed instruction
system.cpu00.commit.op_class_0::total          968665                       # Class of committed instruction
system.cpu00.commit.bw_lim_events               53213                       # number cycles where commit BW limit reached
system.cpu00.rob.rob_reads                    1833493                       # The number of ROB reads
system.cpu00.rob.rob_writes                   2168560                       # The number of ROB writes
system.cpu00.timesIdled                          1405                       # Number of times that the entire CPU went into an idle state and unscheduled itself
system.cpu00.idleCycles                        201234                       # Total number of cycles that the CPU has spent unscheduled due to idling
system.cpu00.quiesceCycles                      69184                       # Total number of cycles that CPU has spent quiesced or waiting for an interrupt
system.cpu00.committedInsts                    870011                       # Number of Instructions Simulated
system.cpu00.committedOps                      870011                       # Number of Ops (including micro ops) Simulated
system.cpu00.cpi                             1.187351                       # CPI: Cycles Per Instruction
system.cpu00.cpi_total                       1.187351                       # CPI: Total CPI of All Threads
system.cpu00.ipc                             0.842211                       # IPC: Instructions Per Cycle
system.cpu00.ipc_total                       0.842211                       # IPC: Total IPC of All Threads
system.cpu00.int_regfile_reads                1143116                       # number of integer regfile reads
system.cpu00.int_regfile_writes                613203                       # number of integer regfile writes
system.cpu00.fp_regfile_reads                  151843                       # number of floating regfile reads
system.cpu00.fp_regfile_writes                 102904                       # number of floating regfile writes
system.cpu00.misc_regfile_reads                  4741                       # number of misc regfile reads
system.cpu00.misc_regfile_writes                 2252                       # number of misc regfile writes
system.cpu00.dcache.tags.replacements           14899                       # number of replacements
system.cpu00.dcache.tags.tagsinuse          63.024935                       # Cycle average of tags in use
system.cpu00.dcache.tags.total_refs            224158                       # Total number of references to valid blocks.
system.cpu00.dcache.tags.sampled_refs           14963                       # Sample count of references to valid blocks.
system.cpu00.dcache.tags.avg_refs           14.980819                       # Average number of references to valid blocks.
system.cpu00.dcache.tags.warmup_cycle        26832009                       # Cycle when the warmup percentage was hit.
system.cpu00.dcache.tags.occ_blocks::cpu00.data    63.024935                       # Average occupied blocks per requestor
system.cpu00.dcache.tags.occ_percent::cpu00.data     0.984765                       # Average percentage of cache occupancy
system.cpu00.dcache.tags.occ_percent::total     0.984765                       # Average percentage of cache occupancy
system.cpu00.dcache.tags.occ_task_id_blocks::1024           64                       # Occupied blocks per task id
system.cpu00.dcache.tags.age_task_id_blocks_1024::0           58                       # Occupied blocks per task id
system.cpu00.dcache.tags.age_task_id_blocks_1024::1            6                       # Occupied blocks per task id
system.cpu00.dcache.tags.occ_task_id_percent::1024            1                       # Percentage of cache occupancy per task id
system.cpu00.dcache.tags.tag_accesses         1100324                       # Number of tag accesses
system.cpu00.dcache.tags.data_accesses        1100324                       # Number of data accesses
system.cpu00.dcache.ReadReq_hits::cpu00.data       139124                       # number of ReadReq hits
system.cpu00.dcache.ReadReq_hits::total        139124                       # number of ReadReq hits
system.cpu00.dcache.WriteReq_hits::cpu00.data        82935                       # number of WriteReq hits
system.cpu00.dcache.WriteReq_hits::total        82935                       # number of WriteReq hits
system.cpu00.dcache.LoadLockedReq_hits::cpu00.data          876                       # number of LoadLockedReq hits
system.cpu00.dcache.LoadLockedReq_hits::total          876                       # number of LoadLockedReq hits
system.cpu00.dcache.StoreCondReq_hits::cpu00.data         1104                       # number of StoreCondReq hits
system.cpu00.dcache.StoreCondReq_hits::total         1104                       # number of StoreCondReq hits
system.cpu00.dcache.demand_hits::cpu00.data       222059                       # number of demand (read+write) hits
system.cpu00.dcache.demand_hits::total         222059                       # number of demand (read+write) hits
system.cpu00.dcache.overall_hits::cpu00.data       222059                       # number of overall hits
system.cpu00.dcache.overall_hits::total        222059                       # number of overall hits
system.cpu00.dcache.ReadReq_misses::cpu00.data        11470                       # number of ReadReq misses
system.cpu00.dcache.ReadReq_misses::total        11470                       # number of ReadReq misses
system.cpu00.dcache.WriteReq_misses::cpu00.data        35469                       # number of WriteReq misses
system.cpu00.dcache.WriteReq_misses::total        35469                       # number of WriteReq misses
system.cpu00.dcache.LoadLockedReq_misses::cpu00.data          314                       # number of LoadLockedReq misses
system.cpu00.dcache.LoadLockedReq_misses::total          314                       # number of LoadLockedReq misses
system.cpu00.dcache.StoreCondReq_misses::cpu00.data           19                       # number of StoreCondReq misses
system.cpu00.dcache.StoreCondReq_misses::total           19                       # number of StoreCondReq misses
system.cpu00.dcache.demand_misses::cpu00.data        46939                       # number of demand (read+write) misses
system.cpu00.dcache.demand_misses::total        46939                       # number of demand (read+write) misses
system.cpu00.dcache.overall_misses::cpu00.data        46939                       # number of overall misses
system.cpu00.dcache.overall_misses::total        46939                       # number of overall misses
system.cpu00.dcache.ReadReq_miss_latency::cpu00.data    466214704                       # number of ReadReq miss cycles
system.cpu00.dcache.ReadReq_miss_latency::total    466214704                       # number of ReadReq miss cycles
system.cpu00.dcache.WriteReq_miss_latency::cpu00.data   5500862760                       # number of WriteReq miss cycles
system.cpu00.dcache.WriteReq_miss_latency::total   5500862760                       # number of WriteReq miss cycles
system.cpu00.dcache.LoadLockedReq_miss_latency::cpu00.data      3266062                       # number of LoadLockedReq miss cycles
system.cpu00.dcache.LoadLockedReq_miss_latency::total      3266062                       # number of LoadLockedReq miss cycles
system.cpu00.dcache.StoreCondReq_miss_latency::cpu00.data       289750                       # number of StoreCondReq miss cycles
system.cpu00.dcache.StoreCondReq_miss_latency::total       289750                       # number of StoreCondReq miss cycles
system.cpu00.dcache.demand_miss_latency::cpu00.data   5967077464                       # number of demand (read+write) miss cycles
system.cpu00.dcache.demand_miss_latency::total   5967077464                       # number of demand (read+write) miss cycles
system.cpu00.dcache.overall_miss_latency::cpu00.data   5967077464                       # number of overall miss cycles
system.cpu00.dcache.overall_miss_latency::total   5967077464                       # number of overall miss cycles
system.cpu00.dcache.ReadReq_accesses::cpu00.data       150594                       # number of ReadReq accesses(hits+misses)
system.cpu00.dcache.ReadReq_accesses::total       150594                       # number of ReadReq accesses(hits+misses)
system.cpu00.dcache.WriteReq_accesses::cpu00.data       118404                       # number of WriteReq accesses(hits+misses)
system.cpu00.dcache.WriteReq_accesses::total       118404                       # number of WriteReq accesses(hits+misses)
system.cpu00.dcache.LoadLockedReq_accesses::cpu00.data         1190                       # number of LoadLockedReq accesses(hits+misses)
system.cpu00.dcache.LoadLockedReq_accesses::total         1190                       # number of LoadLockedReq accesses(hits+misses)
system.cpu00.dcache.StoreCondReq_accesses::cpu00.data         1123                       # number of StoreCondReq accesses(hits+misses)
system.cpu00.dcache.StoreCondReq_accesses::total         1123                       # number of StoreCondReq accesses(hits+misses)
system.cpu00.dcache.demand_accesses::cpu00.data       268998                       # number of demand (read+write) accesses
system.cpu00.dcache.demand_accesses::total       268998                       # number of demand (read+write) accesses
system.cpu00.dcache.overall_accesses::cpu00.data       268998                       # number of overall (read+write) accesses
system.cpu00.dcache.overall_accesses::total       268998                       # number of overall (read+write) accesses
system.cpu00.dcache.ReadReq_miss_rate::cpu00.data     0.076165                       # miss rate for ReadReq accesses
system.cpu00.dcache.ReadReq_miss_rate::total     0.076165                       # miss rate for ReadReq accesses
system.cpu00.dcache.WriteReq_miss_rate::cpu00.data     0.299559                       # miss rate for WriteReq accesses
system.cpu00.dcache.WriteReq_miss_rate::total     0.299559                       # miss rate for WriteReq accesses
system.cpu00.dcache.LoadLockedReq_miss_rate::cpu00.data     0.263866                       # miss rate for LoadLockedReq accesses
system.cpu00.dcache.LoadLockedReq_miss_rate::total     0.263866                       # miss rate for LoadLockedReq accesses
system.cpu00.dcache.StoreCondReq_miss_rate::cpu00.data     0.016919                       # miss rate for StoreCondReq accesses
system.cpu00.dcache.StoreCondReq_miss_rate::total     0.016919                       # miss rate for StoreCondReq accesses
system.cpu00.dcache.demand_miss_rate::cpu00.data     0.174496                       # miss rate for demand accesses
system.cpu00.dcache.demand_miss_rate::total     0.174496                       # miss rate for demand accesses
system.cpu00.dcache.overall_miss_rate::cpu00.data     0.174496                       # miss rate for overall accesses
system.cpu00.dcache.overall_miss_rate::total     0.174496                       # miss rate for overall accesses
system.cpu00.dcache.ReadReq_avg_miss_latency::cpu00.data 40646.443243                       # average ReadReq miss latency
system.cpu00.dcache.ReadReq_avg_miss_latency::total 40646.443243                       # average ReadReq miss latency
system.cpu00.dcache.WriteReq_avg_miss_latency::cpu00.data 155089.310666                       # average WriteReq miss latency
system.cpu00.dcache.WriteReq_avg_miss_latency::total 155089.310666                       # average WriteReq miss latency
system.cpu00.dcache.LoadLockedReq_avg_miss_latency::cpu00.data 10401.471338                       # average LoadLockedReq miss latency
system.cpu00.dcache.LoadLockedReq_avg_miss_latency::total 10401.471338                       # average LoadLockedReq miss latency
system.cpu00.dcache.StoreCondReq_avg_miss_latency::cpu00.data        15250                       # average StoreCondReq miss latency
system.cpu00.dcache.StoreCondReq_avg_miss_latency::total        15250                       # average StoreCondReq miss latency
system.cpu00.dcache.demand_avg_miss_latency::cpu00.data 127124.085814                       # average overall miss latency
system.cpu00.dcache.demand_avg_miss_latency::total 127124.085814                       # average overall miss latency
system.cpu00.dcache.overall_avg_miss_latency::cpu00.data 127124.085814                       # average overall miss latency
system.cpu00.dcache.overall_avg_miss_latency::total 127124.085814                       # average overall miss latency
system.cpu00.dcache.blocked_cycles::no_mshrs       164036                       # number of cycles access was blocked
system.cpu00.dcache.blocked_cycles::no_targets            0                       # number of cycles access was blocked
system.cpu00.dcache.blocked::no_mshrs            3439                       # number of cycles access was blocked
system.cpu00.dcache.blocked::no_targets             0                       # number of cycles access was blocked
system.cpu00.dcache.avg_blocked_cycles::no_mshrs    47.698750                       # average number of cycles each access was blocked
system.cpu00.dcache.avg_blocked_cycles::no_targets          nan                       # average number of cycles each access was blocked
system.cpu00.dcache.fast_writes                     0                       # number of fast writes performed
system.cpu00.dcache.cache_copies                    0                       # number of cache copies performed
system.cpu00.dcache.writebacks::writebacks        10790                       # number of writebacks
system.cpu00.dcache.writebacks::total           10790                       # number of writebacks
system.cpu00.dcache.ReadReq_mshr_hits::cpu00.data         3630                       # number of ReadReq MSHR hits
system.cpu00.dcache.ReadReq_mshr_hits::total         3630                       # number of ReadReq MSHR hits
system.cpu00.dcache.WriteReq_mshr_hits::cpu00.data        28328                       # number of WriteReq MSHR hits
system.cpu00.dcache.WriteReq_mshr_hits::total        28328                       # number of WriteReq MSHR hits
system.cpu00.dcache.LoadLockedReq_mshr_hits::cpu00.data          141                       # number of LoadLockedReq MSHR hits
system.cpu00.dcache.LoadLockedReq_mshr_hits::total          141                       # number of LoadLockedReq MSHR hits
system.cpu00.dcache.demand_mshr_hits::cpu00.data        31958                       # number of demand (read+write) MSHR hits
system.cpu00.dcache.demand_mshr_hits::total        31958                       # number of demand (read+write) MSHR hits
system.cpu00.dcache.overall_mshr_hits::cpu00.data        31958                       # number of overall MSHR hits
system.cpu00.dcache.overall_mshr_hits::total        31958                       # number of overall MSHR hits
system.cpu00.dcache.ReadReq_mshr_misses::cpu00.data         7840                       # number of ReadReq MSHR misses
system.cpu00.dcache.ReadReq_mshr_misses::total         7840                       # number of ReadReq MSHR misses
system.cpu00.dcache.WriteReq_mshr_misses::cpu00.data         7141                       # number of WriteReq MSHR misses
system.cpu00.dcache.WriteReq_mshr_misses::total         7141                       # number of WriteReq MSHR misses
system.cpu00.dcache.LoadLockedReq_mshr_misses::cpu00.data          173                       # number of LoadLockedReq MSHR misses
system.cpu00.dcache.LoadLockedReq_mshr_misses::total          173                       # number of LoadLockedReq MSHR misses
system.cpu00.dcache.StoreCondReq_mshr_misses::cpu00.data           19                       # number of StoreCondReq MSHR misses
system.cpu00.dcache.StoreCondReq_mshr_misses::total           19                       # number of StoreCondReq MSHR misses
system.cpu00.dcache.demand_mshr_misses::cpu00.data        14981                       # number of demand (read+write) MSHR misses
system.cpu00.dcache.demand_mshr_misses::total        14981                       # number of demand (read+write) MSHR misses
system.cpu00.dcache.overall_mshr_misses::cpu00.data        14981                       # number of overall MSHR misses
system.cpu00.dcache.overall_mshr_misses::total        14981                       # number of overall MSHR misses
system.cpu00.dcache.ReadReq_mshr_miss_latency::cpu00.data    265922119                       # number of ReadReq MSHR miss cycles
system.cpu00.dcache.ReadReq_mshr_miss_latency::total    265922119                       # number of ReadReq MSHR miss cycles
system.cpu00.dcache.WriteReq_mshr_miss_latency::cpu00.data   1166751262                       # number of WriteReq MSHR miss cycles
system.cpu00.dcache.WriteReq_mshr_miss_latency::total   1166751262                       # number of WriteReq MSHR miss cycles
system.cpu00.dcache.LoadLockedReq_mshr_miss_latency::cpu00.data      1520608                       # number of LoadLockedReq MSHR miss cycles
system.cpu00.dcache.LoadLockedReq_mshr_miss_latency::total      1520608                       # number of LoadLockedReq MSHR miss cycles
system.cpu00.dcache.StoreCondReq_mshr_miss_latency::cpu00.data       267729                       # number of StoreCondReq MSHR miss cycles
system.cpu00.dcache.StoreCondReq_mshr_miss_latency::total       267729                       # number of StoreCondReq MSHR miss cycles
system.cpu00.dcache.demand_mshr_miss_latency::cpu00.data   1432673381                       # number of demand (read+write) MSHR miss cycles
system.cpu00.dcache.demand_mshr_miss_latency::total   1432673381                       # number of demand (read+write) MSHR miss cycles
system.cpu00.dcache.overall_mshr_miss_latency::cpu00.data   1432673381                       # number of overall MSHR miss cycles
system.cpu00.dcache.overall_mshr_miss_latency::total   1432673381                       # number of overall MSHR miss cycles
system.cpu00.dcache.ReadReq_mshr_miss_rate::cpu00.data     0.052061                       # mshr miss rate for ReadReq accesses
system.cpu00.dcache.ReadReq_mshr_miss_rate::total     0.052061                       # mshr miss rate for ReadReq accesses
system.cpu00.dcache.WriteReq_mshr_miss_rate::cpu00.data     0.060310                       # mshr miss rate for WriteReq accesses
system.cpu00.dcache.WriteReq_mshr_miss_rate::total     0.060310                       # mshr miss rate for WriteReq accesses
system.cpu00.dcache.LoadLockedReq_mshr_miss_rate::cpu00.data     0.145378                       # mshr miss rate for LoadLockedReq accesses
system.cpu00.dcache.LoadLockedReq_mshr_miss_rate::total     0.145378                       # mshr miss rate for LoadLockedReq accesses
system.cpu00.dcache.StoreCondReq_mshr_miss_rate::cpu00.data     0.016919                       # mshr miss rate for StoreCondReq accesses
system.cpu00.dcache.StoreCondReq_mshr_miss_rate::total     0.016919                       # mshr miss rate for StoreCondReq accesses
system.cpu00.dcache.demand_mshr_miss_rate::cpu00.data     0.055692                       # mshr miss rate for demand accesses
system.cpu00.dcache.demand_mshr_miss_rate::total     0.055692                       # mshr miss rate for demand accesses
system.cpu00.dcache.overall_mshr_miss_rate::cpu00.data     0.055692                       # mshr miss rate for overall accesses
system.cpu00.dcache.overall_mshr_miss_rate::total     0.055692                       # mshr miss rate for overall accesses
system.cpu00.dcache.ReadReq_avg_mshr_miss_latency::cpu00.data 33918.637628                       # average ReadReq mshr miss latency
system.cpu00.dcache.ReadReq_avg_mshr_miss_latency::total 33918.637628                       # average ReadReq mshr miss latency
system.cpu00.dcache.WriteReq_avg_mshr_miss_latency::cpu00.data 163387.657471                       # average WriteReq mshr miss latency
system.cpu00.dcache.WriteReq_avg_mshr_miss_latency::total 163387.657471                       # average WriteReq mshr miss latency
system.cpu00.dcache.LoadLockedReq_avg_mshr_miss_latency::cpu00.data  8789.641618                       # average LoadLockedReq mshr miss latency
system.cpu00.dcache.LoadLockedReq_avg_mshr_miss_latency::total  8789.641618                       # average LoadLockedReq mshr miss latency
system.cpu00.dcache.StoreCondReq_avg_mshr_miss_latency::cpu00.data        14091                       # average StoreCondReq mshr miss latency
system.cpu00.dcache.StoreCondReq_avg_mshr_miss_latency::total        14091                       # average StoreCondReq mshr miss latency
system.cpu00.dcache.demand_avg_mshr_miss_latency::cpu00.data 95632.693478                       # average overall mshr miss latency
system.cpu00.dcache.demand_avg_mshr_miss_latency::total 95632.693478                       # average overall mshr miss latency
system.cpu00.dcache.overall_avg_mshr_miss_latency::cpu00.data 95632.693478                       # average overall mshr miss latency
[...]
system.tol2bus.pkt_count_system.cpu06.dcache.mem_side::system.l2.cpu_side         3477                       # Packet count per connected master and slave (bytes)
system.tol2bus.pkt_count_system.cpu07.icache.mem_side::system.l2.cpu_side         1530                       # Packet count per connected master and slave (bytes)
system.tol2bus.pkt_count_system.cpu07.dcache.mem_side::system.l2.cpu_side         2011                       # Packet count per connected master and slave (bytes)
system.tol2bus.pkt_count_system.cpu08.icache.mem_side::system.l2.cpu_side         1233                       # Packet count per connected master and slave (bytes)
system.tol2bus.pkt_count_system.cpu08.dcache.mem_side::system.l2.cpu_side         1310                       # Packet count per connected master and slave (bytes)
system.tol2bus.pkt_count_system.cpu09.icache.mem_side::system.l2.cpu_side         2273                       # Packet count per connected master and slave (bytes)
system.tol2bus.pkt_count_system.cpu09.dcache.mem_side::system.l2.cpu_side         2841                       # Packet count per connected master and slave (bytes)
system.tol2bus.pkt_count_system.cpu10.icache.mem_side::system.l2.cpu_side         2843                       # Packet count per connected master and slave (bytes)
system.tol2bus.pkt_count_system.cpu10.dcache.mem_side::system.l2.cpu_side         3714                       # Packet count per connected master and slave (bytes)
system.tol2bus.pkt_count_system.cpu11.icache.mem_side::system.l2.cpu_side         2418                       # Packet count per connected master and slave (bytes)
system.tol2bus.pkt_count_system.cpu11.dcache.mem_side::system.l2.cpu_side         3218                       # Packet count per connected master and slave (bytes)
system.tol2bus.pkt_count_system.cpu12.icache.mem_side::system.l2.cpu_side         1016                       # Packet count per connected master and slave (bytes)
system.tol2bus.pkt_count_system.cpu12.dcache.mem_side::system.l2.cpu_side         1320                       # Packet count per connected master and slave (bytes)
system.tol2bus.pkt_count_system.cpu13.icache.mem_side::system.l2.cpu_side         2148                       # Packet count per connected master and slave (bytes)
system.tol2bus.pkt_count_system.cpu13.dcache.mem_side::system.l2.cpu_side         2959                       # Packet count per connected master and slave (bytes)
system.tol2bus.pkt_count_system.cpu14.icache.mem_side::system.l2.cpu_side          922                       # Packet count per connected master and slave (bytes)
system.tol2bus.pkt_count_system.cpu14.dcache.mem_side::system.l2.cpu_side         1296                       # Packet count per connected master and slave (bytes)
system.tol2bus.pkt_count_system.cpu15.icache.mem_side::system.l2.cpu_side         2675                       # Packet count per connected master and slave (bytes)
system.tol2bus.pkt_count_system.cpu15.dcache.mem_side::system.l2.cpu_side         3790                       # Packet count per connected master and slave (bytes)
system.tol2bus.pkt_count::total                130207                       # Packet count per connected master and slave (bytes)
system.tol2bus.pkt_size_system.cpu00.icache.mem_side::system.l2.cpu_side       973952                       # Cumulative packet size per connected master and slave (bytes)
system.tol2bus.pkt_size_system.cpu00.dcache.mem_side::system.l2.cpu_side      1638976                       # Cumulative packet size per connected master and slave (bytes)
system.tol2bus.pkt_size_system.cpu01.icache.mem_side::system.l2.cpu_side        38976                       # Cumulative packet size per connected master and slave (bytes)
system.tol2bus.pkt_size_system.cpu01.dcache.mem_side::system.l2.cpu_side        42112                       # Cumulative packet size per connected master and slave (bytes)
system.tol2bus.pkt_size_system.cpu02.icache.mem_side::system.l2.cpu_side        62016                       # Cumulative packet size per connected master and slave (bytes)
system.tol2bus.pkt_size_system.cpu02.dcache.mem_side::system.l2.cpu_side        46848                       # Cumulative packet size per connected master and slave (bytes)
system.tol2bus.pkt_size_system.cpu03.icache.mem_side::system.l2.cpu_side        77504                       # Cumulative packet size per connected master and slave (bytes)
system.tol2bus.pkt_size_system.cpu03.dcache.mem_side::system.l2.cpu_side        64960                       # Cumulative packet size per connected master and slave (bytes)
system.tol2bus.pkt_size_system.cpu04.icache.mem_side::system.l2.cpu_side        40064                       # Cumulative packet size per connected master and slave (bytes)
system.tol2bus.pkt_size_system.cpu04.dcache.mem_side::system.l2.cpu_side        36224                       # Cumulative packet size per connected master and slave (bytes)
system.tol2bus.pkt_size_system.cpu05.icache.mem_side::system.l2.cpu_side        68928                       # Cumulative packet size per connected master and slave (bytes)
system.tol2bus.pkt_size_system.cpu05.dcache.mem_side::system.l2.cpu_side        52352                       # Cumulative packet size per connected master and slave (bytes)
system.tol2bus.pkt_size_system.cpu06.icache.mem_side::system.l2.cpu_side        94080                       # Cumulative packet size per connected master and slave (bytes)
system.tol2bus.pkt_size_system.cpu06.dcache.mem_side::system.l2.cpu_side        82048                       # Cumulative packet size per connected master and slave (bytes)
system.tol2bus.pkt_size_system.cpu07.icache.mem_side::system.l2.cpu_side        55488                       # Cumulative packet size per connected master and slave (bytes)
system.tol2bus.pkt_size_system.cpu07.dcache.mem_side::system.l2.cpu_side        44736                       # Cumulative packet size per connected master and slave (bytes)
system.tol2bus.pkt_size_system.cpu08.icache.mem_side::system.l2.cpu_side        43392                       # Cumulative packet size per connected master and slave (bytes)
system.tol2bus.pkt_size_system.cpu08.dcache.mem_side::system.l2.cpu_side        38272                       # Cumulative packet size per connected master and slave (bytes)
system.tol2bus.pkt_size_system.cpu09.icache.mem_side::system.l2.cpu_side        86848                       # Cumulative packet size per connected master and slave (bytes)
system.tol2bus.pkt_size_system.cpu09.dcache.mem_side::system.l2.cpu_side        71552                       # Cumulative packet size per connected master and slave (bytes)
system.tol2bus.pkt_size_system.cpu10.icache.mem_side::system.l2.cpu_side       110976                       # Cumulative packet size per connected master and slave (bytes)
system.tol2bus.pkt_size_system.cpu10.dcache.mem_side::system.l2.cpu_side        91264                       # Cumulative packet size per connected master and slave (bytes)
system.tol2bus.pkt_size_system.cpu11.icache.mem_side::system.l2.cpu_side        92928                       # Cumulative packet size per connected master and slave (bytes)
system.tol2bus.pkt_size_system.cpu11.dcache.mem_side::system.l2.cpu_side        76160                       # Cumulative packet size per connected master and slave (bytes)
system.tol2bus.pkt_size_system.cpu12.icache.mem_side::system.l2.cpu_side        35008                       # Cumulative packet size per connected master and slave (bytes)
system.tol2bus.pkt_size_system.cpu12.dcache.mem_side::system.l2.cpu_side        44352                       # Cumulative packet size per connected master and slave (bytes)
system.tol2bus.pkt_size_system.cpu13.icache.mem_side::system.l2.cpu_side        81408                       # Cumulative packet size per connected master and slave (bytes)
system.tol2bus.pkt_size_system.cpu13.dcache.mem_side::system.l2.cpu_side        70784                       # Cumulative packet size per connected master and slave (bytes)
system.tol2bus.pkt_size_system.cpu14.icache.mem_side::system.l2.cpu_side        31232                       # Cumulative packet size per connected master and slave (bytes)
system.tol2bus.pkt_size_system.cpu14.dcache.mem_side::system.l2.cpu_side        42944                       # Cumulative packet size per connected master and slave (bytes)
system.tol2bus.pkt_size_system.cpu15.icache.mem_side::system.l2.cpu_side       104448                       # Cumulative packet size per connected master and slave (bytes)
system.tol2bus.pkt_size_system.cpu15.dcache.mem_side::system.l2.cpu_side        98048                       # Cumulative packet size per connected master and slave (bytes)
system.tol2bus.pkt_size::total                4538880                       # Cumulative packet size per connected master and slave (bytes)
system.tol2bus.snoops                            6140                       # Total snoops (count)
system.tol2bus.snoop_fanout::samples            49769                       # Request fanout histogram
system.tol2bus.snoop_fanout::mean            2.105146                       # Request fanout histogram
system.tol2bus.snoop_fanout::stdev           3.752133                       # Request fanout histogram
system.tol2bus.snoop_fanout::underflows             0      0.00%      0.00% # Request fanout histogram
system.tol2bus.snoop_fanout::0                  29119     58.51%     58.51% # Request fanout histogram
system.tol2bus.snoop_fanout::1                   6886     13.84%     72.34% # Request fanout histogram
system.tol2bus.snoop_fanout::2                   2038      4.09%     76.44% # Request fanout histogram
system.tol2bus.snoop_fanout::3                   1349      2.71%     79.15% # Request fanout histogram
system.tol2bus.snoop_fanout::4                   1241      2.49%     81.64% # Request fanout histogram
system.tol2bus.snoop_fanout::5                   1169      2.35%     83.99% # Request fanout histogram
system.tol2bus.snoop_fanout::6                   1090      2.19%     86.18% # Request fanout histogram
system.tol2bus.snoop_fanout::7                   1025      2.06%     88.24% # Request fanout histogram
system.tol2bus.snoop_fanout::8                    850      1.71%     89.95% # Request fanout histogram
system.tol2bus.snoop_fanout::9                    834      1.68%     91.63% # Request fanout histogram
system.tol2bus.snoop_fanout::10                   801      1.61%     93.23% # Request fanout histogram
system.tol2bus.snoop_fanout::11                   833      1.67%     94.91% # Request fanout histogram
system.tol2bus.snoop_fanout::12                   737      1.48%     96.39% # Request fanout histogram
system.tol2bus.snoop_fanout::13                   676      1.36%     97.75% # Request fanout histogram
system.tol2bus.snoop_fanout::14                   688      1.38%     99.13% # Request fanout histogram
system.tol2bus.snoop_fanout::15                   433      0.87%    100.00% # Request fanout histogram
system.tol2bus.snoop_fanout::16                     0      0.00%    100.00% # Request fanout histogram
system.tol2bus.snoop_fanout::17                     0      0.00%    100.00% # Request fanout histogram
system.tol2bus.snoop_fanout::18                     0      0.00%    100.00% # Request fanout histogram
system.tol2bus.snoop_fanout::19                     0      0.00%    100.00% # Request fanout histogram
system.tol2bus.snoop_fanout::20                     0      0.00%    100.00% # Request fanout histogram
system.tol2bus.snoop_fanout::21                     0      0.00%    100.00% # Request fanout histogram
system.tol2bus.snoop_fanout::22                     0      0.00%    100.00% # Request fanout histogram
system.tol2bus.snoop_fanout::23                     0      0.00%    100.00% # Request fanout histogram
system.tol2bus.snoop_fanout::24                     0      0.00%    100.00% # Request fanout histogram
system.tol2bus.snoop_fanout::25                     0      0.00%    100.00% # Request fanout histogram
system.tol2bus.snoop_fanout::26                     0      0.00%    100.00% # Request fanout histogram
system.tol2bus.snoop_fanout::27                     0      0.00%    100.00% # Request fanout histogram
system.tol2bus.snoop_fanout::28                     0      0.00%    100.00% # Request fanout histogram
system.tol2bus.snoop_fanout::29                     0      0.00%    100.00% # Request fanout histogram
system.tol2bus.snoop_fanout::30                     0      0.00%    100.00% # Request fanout histogram
system.tol2bus.snoop_fanout::31                     0      0.00%    100.00% # Request fanout histogram
system.tol2bus.snoop_fanout::32                     0      0.00%    100.00% # Request fanout histogram
system.tol2bus.snoop_fanout::overflows              0      0.00%    100.00% # Request fanout histogram
system.tol2bus.snoop_fanout::min_value              0                       # Request fanout histogram
system.tol2bus.snoop_fanout::max_value             15                       # Request fanout histogram
system.tol2bus.snoop_fanout::total              49769                       # Request fanout histogram
system.tol2bus.reqLayer0.occupancy          166217498                       # Layer occupancy (ticks)
system.tol2bus.reqLayer0.utilization             13.0                       # Layer utilization (%)
system.tol2bus.respLayer0.occupancy          27722850                       # Layer occupancy (ticks)
system.tol2bus.respLayer0.utilization             2.2                       # Layer utilization (%)
system.tol2bus.respLayer1.occupancy          52818741                       # Layer occupancy (ticks)
system.tol2bus.respLayer1.utilization             4.1                       # Layer utilization (%)
system.tol2bus.respLayer2.occupancy           1782118                       # Layer occupancy (ticks)
system.tol2bus.respLayer2.utilization             0.1                       # Layer utilization (%)
system.tol2bus.respLayer3.occupancy           2005138                       # Layer occupancy (ticks)
system.tol2bus.respLayer3.utilization             0.2                       # Layer utilization (%)
system.tol2bus.respLayer4.occupancy           2572703                       # Layer occupancy (ticks)
system.tol2bus.respLayer4.utilization             0.2                       # Layer utilization (%)
system.tol2bus.respLayer5.occupancy           2210132                       # Layer occupancy (ticks)
system.tol2bus.respLayer5.utilization             0.2                       # Layer utilization (%)
system.tol2bus.respLayer6.occupancy           2995575                       # Layer occupancy (ticks)
system.tol2bus.respLayer6.utilization             0.2                       # Layer utilization (%)
system.tol2bus.respLayer7.occupancy           4061712                       # Layer occupancy (ticks)
system.tol2bus.respLayer7.utilization             0.3                       # Layer utilization (%)
system.tol2bus.respLayer8.occupancy           1862212                       # Layer occupancy (ticks)
system.tol2bus.respLayer8.utilization             0.1                       # Layer utilization (%)
system.tol2bus.respLayer9.occupancy           1791214                       # Layer occupancy (ticks)
system.tol2bus.respLayer9.utilization             0.1                       # Layer utilization (%)
system.tol2bus.respLayer10.occupancy          2757025                       # Layer occupancy (ticks)
system.tol2bus.respLayer10.utilization            0.2                       # Layer utilization (%)
system.tol2bus.respLayer11.occupancy          2604803                       # Layer occupancy (ticks)
system.tol2bus.respLayer11.utilization            0.2                       # Layer utilization (%)
system.tol2bus.respLayer12.occupancy          3467610                       # Layer occupancy (ticks)
system.tol2bus.respLayer12.utilization            0.3                       # Layer utilization (%)
system.tol2bus.respLayer13.occupancy          5193294                       # Layer occupancy (ticks)
system.tol2bus.respLayer13.utilization            0.4                       # Layer utilization (%)
system.tol2bus.respLayer14.occupancy          2387944                       # Layer occupancy (ticks)
system.tol2bus.respLayer14.utilization            0.2                       # Layer utilization (%)
system.tol2bus.respLayer15.occupancy          2643547                       # Layer occupancy (ticks)
system.tol2bus.respLayer15.utilization            0.2                       # Layer utilization (%)
system.tol2bus.respLayer16.occupancy          1991061                       # Layer occupancy (ticks)
system.tol2bus.respLayer16.utilization            0.2                       # Layer utilization (%)
system.tol2bus.respLayer17.occupancy          1802184                       # Layer occupancy (ticks)
system.tol2bus.respLayer17.utilization            0.1                       # Layer utilization (%)
system.tol2bus.respLayer18.occupancy          3266402                       # Layer occupancy (ticks)
system.tol2bus.respLayer18.utilization            0.3                       # Layer utilization (%)
system.tol2bus.respLayer19.occupancy          4160720                       # Layer occupancy (ticks)
system.tol2bus.respLayer19.utilization            0.3                       # Layer utilization (%)
system.tol2bus.respLayer20.occupancy          3920687                       # Layer occupancy (ticks)
system.tol2bus.respLayer20.utilization            0.3                       # Layer utilization (%)
system.tol2bus.respLayer21.occupancy          5465208                       # Layer occupancy (ticks)
system.tol2bus.respLayer21.utilization            0.4                       # Layer utilization (%)
system.tol2bus.respLayer22.occupancy          3434345                       # Layer occupancy (ticks)
system.tol2bus.respLayer22.utilization            0.3                       # Layer utilization (%)
system.tol2bus.respLayer23.occupancy          4919842                       # Layer occupancy (ticks)
system.tol2bus.respLayer23.utilization            0.4                       # Layer utilization (%)
system.tol2bus.respLayer24.occupancy          1682273                       # Layer occupancy (ticks)
system.tol2bus.respLayer24.utilization            0.1                       # Layer utilization (%)
system.tol2bus.respLayer25.occupancy          1773208                       # Layer occupancy (ticks)
system.tol2bus.respLayer25.utilization            0.1                       # Layer utilization (%)
system.tol2bus.respLayer26.occupancy          3118716                       # Layer occupancy (ticks)
system.tol2bus.respLayer26.utilization            0.2                       # Layer utilization (%)
system.tol2bus.respLayer27.occupancy          4422472                       # Layer occupancy (ticks)
system.tol2bus.respLayer27.utilization            0.3                       # Layer utilization (%)
system.tol2bus.respLayer28.occupancy          1570151                       # Layer occupancy (ticks)
system.tol2bus.respLayer28.utilization            0.1                       # Layer utilization (%)
system.tol2bus.respLayer29.occupancy          1737286                       # Layer occupancy (ticks)
system.tol2bus.respLayer29.utilization            0.1                       # Layer utilization (%)
system.tol2bus.respLayer30.occupancy          3733012                       # Layer occupancy (ticks)
system.tol2bus.respLayer30.utilization            0.3                       # Layer utilization (%)
system.tol2bus.respLayer31.occupancy          5537961                       # Layer occupancy (ticks)
system.tol2bus.respLayer31.utilization            0.4                       # Layer utilization (%)

---------- End Simulation Statistics   ----------
