
---------- Begin Simulation Statistics ----------
sim_seconds                                  0.010169                       # Number of seconds simulated
sim_ticks                                 10168729956                       # Number of ticks simulated
final_tick                                10168729956                       # Number of ticks from beginning of simulation (restored from checkpoints and never reset)
sim_freq                                 1000000000000                       # Frequency of simulated ticks
host_inst_rate                                  90645                       # Simulator instruction rate (inst/s)
host_op_rate                                    90645                       # Simulator op (including micro ops) rate (op/s)
host_tick_rate                               14398377                       # Simulator tick rate (ticks/s)
host_mem_usage                                 692648                       # Number of bytes of host memory used
host_seconds                                   706.24                       # Real time elapsed on the host
sim_insts                                    64017147                       # Number of instructions simulated
sim_ops                                      64017147                       # Number of ops (including micro ops) simulated
system.voltage_domain.voltage                       1                       # Voltage in Volts
system.clk_domain.clock                          1000                       # Clock period in ticks
system.mem_ctrls.bytes_read::cpu00.inst        129152                       # Number of bytes read from this memory
system.mem_ctrls.bytes_read::cpu00.data        892096                       # Number of bytes read from this memory
system.mem_ctrls.bytes_read::cpu01.inst         12928                       # Number of bytes read from this memory
system.mem_ctrls.bytes_read::cpu01.data        605696                       # Number of bytes read from this memory
system.mem_ctrls.bytes_read::cpu02.inst          1344                       # Number of bytes read from this memory
system.mem_ctrls.bytes_read::cpu02.data        620416                       # Number of bytes read from this memory
system.mem_ctrls.bytes_read::cpu03.inst           256                       # Number of bytes read from this memory
system.mem_ctrls.bytes_read::cpu03.data        610112                       # Number of bytes read from this memory
system.mem_ctrls.bytes_read::cpu04.inst            64                       # Number of bytes read from this memory
system.mem_ctrls.bytes_read::cpu04.data        637184                       # Number of bytes read from this memory
system.mem_ctrls.bytes_read::cpu05.inst            64                       # Number of bytes read from this memory
system.mem_ctrls.bytes_read::cpu05.data        606656                       # Number of bytes read from this memory
system.mem_ctrls.bytes_read::cpu06.inst           256                       # Number of bytes read from this memory
system.mem_ctrls.bytes_read::cpu06.data        619328                       # Number of bytes read from this memory
system.mem_ctrls.bytes_read::cpu07.inst           128                       # Number of bytes read from this memory
system.mem_ctrls.bytes_read::cpu07.data        605312                       # Number of bytes read from this memory
system.mem_ctrls.bytes_read::cpu08.data        651136                       # Number of bytes read from this memory
system.mem_ctrls.bytes_read::cpu09.data        550720                       # Number of bytes read from this memory
system.mem_ctrls.bytes_read::cpu10.inst            64                       # Number of bytes read from this memory
system.mem_ctrls.bytes_read::cpu10.data        622464                       # Number of bytes read from this memory
system.mem_ctrls.bytes_read::cpu11.inst            64                       # Number of bytes read from this memory
system.mem_ctrls.bytes_read::cpu11.data        545472                       # Number of bytes read from this memory
system.mem_ctrls.bytes_read::cpu12.inst          1152                       # Number of bytes read from this memory
system.mem_ctrls.bytes_read::cpu12.data        579136                       # Number of bytes read from this memory
system.mem_ctrls.bytes_read::cpu13.inst            64                       # Number of bytes read from this memory
system.mem_ctrls.bytes_read::cpu13.data        535488                       # Number of bytes read from this memory
system.mem_ctrls.bytes_read::cpu14.inst           192                       # Number of bytes read from this memory
system.mem_ctrls.bytes_read::cpu14.data        567872                       # Number of bytes read from this memory
system.mem_ctrls.bytes_read::cpu15.inst           896                       # Number of bytes read from this memory
system.mem_ctrls.bytes_read::cpu15.data        573952                       # Number of bytes read from this memory
system.mem_ctrls.bytes_read::total            9969664                       # Number of bytes read from this memory
system.mem_ctrls.bytes_inst_read::cpu00.inst       129152                       # Number of instructions bytes read from this memory
system.mem_ctrls.bytes_inst_read::cpu01.inst        12928                       # Number of instructions bytes read from this memory
system.mem_ctrls.bytes_inst_read::cpu02.inst         1344                       # Number of instructions bytes read from this memory
system.mem_ctrls.bytes_inst_read::cpu03.inst          256                       # Number of instructions bytes read from this memory
system.mem_ctrls.bytes_inst_read::cpu04.inst           64                       # Number of instructions bytes read from this memory
system.mem_ctrls.bytes_inst_read::cpu05.inst           64                       # Number of instructions bytes read from this memory
system.mem_ctrls.bytes_inst_read::cpu06.inst          256                       # Number of instructions bytes read from this memory
system.mem_ctrls.bytes_inst_read::cpu07.inst          128                       # Number of instructions bytes read from this memory
system.mem_ctrls.bytes_inst_read::cpu10.inst           64                       # Number of instructions bytes read from this memory
system.mem_ctrls.bytes_inst_read::cpu11.inst           64                       # Number of instructions bytes read from this memory
system.mem_ctrls.bytes_inst_read::cpu12.inst         1152                       # Number of instructions bytes read from this memory
system.mem_ctrls.bytes_inst_read::cpu13.inst           64                       # Number of instructions bytes read from this memory
system.mem_ctrls.bytes_inst_read::cpu14.inst          192                       # Number of instructions bytes read from this memory
system.mem_ctrls.bytes_inst_read::cpu15.inst          896                       # Number of instructions bytes read from this memory
system.mem_ctrls.bytes_inst_read::total        146624                       # Number of instructions bytes read from this memory
system.mem_ctrls.bytes_written::writebacks      5868224                       # Number of bytes written to this memory
system.mem_ctrls.bytes_written::total         5868224                       # Number of bytes written to this memory
system.mem_ctrls.num_reads::cpu00.inst           2018                       # Number of read requests responded to by this memory
system.mem_ctrls.num_reads::cpu00.data          13939                       # Number of read requests responded to by this memory
system.mem_ctrls.num_reads::cpu01.inst            202                       # Number of read requests responded to by this memory
system.mem_ctrls.num_reads::cpu01.data           9464                       # Number of read requests responded to by this memory
system.mem_ctrls.num_reads::cpu02.inst             21                       # Number of read requests responded to by this memory
system.mem_ctrls.num_reads::cpu02.data           9694                       # Number of read requests responded to by this memory
system.mem_ctrls.num_reads::cpu03.inst              4                       # Number of read requests responded to by this memory
system.mem_ctrls.num_reads::cpu03.data           9533                       # Number of read requests responded to by this memory
system.mem_ctrls.num_reads::cpu04.inst              1                       # Number of read requests responded to by this memory
system.mem_ctrls.num_reads::cpu04.data           9956                       # Number of read requests responded to by this memory
system.mem_ctrls.num_reads::cpu05.inst              1                       # Number of read requests responded to by this memory
system.mem_ctrls.num_reads::cpu05.data           9479                       # Number of read requests responded to by this memory
system.mem_ctrls.num_reads::cpu06.inst              4                       # Number of read requests responded to by this memory
system.mem_ctrls.num_reads::cpu06.data           9677                       # Number of read requests responded to by this memory
system.mem_ctrls.num_reads::cpu07.inst              2                       # Number of read requests responded to by this memory
system.mem_ctrls.num_reads::cpu07.data           9458                       # Number of read requests responded to by this memory
system.mem_ctrls.num_reads::cpu08.data          10174                       # Number of read requests responded to by this memory
system.mem_ctrls.num_reads::cpu09.data           8605                       # Number of read requests responded to by this memory
system.mem_ctrls.num_reads::cpu10.inst              1                       # Number of read requests responded to by this memory
system.mem_ctrls.num_reads::cpu10.data           9726                       # Number of read requests responded to by this memory
system.mem_ctrls.num_reads::cpu11.inst              1                       # Number of read requests responded to by this memory
system.mem_ctrls.num_reads::cpu11.data           8523                       # Number of read requests responded to by this memory
system.mem_ctrls.num_reads::cpu12.inst             18                       # Number of read requests responded to by this memory
system.mem_ctrls.num_reads::cpu12.data           9049                       # Number of read requests responded to by this memory
system.mem_ctrls.num_reads::cpu13.inst              1                       # Number of read requests responded to by this memory
system.mem_ctrls.num_reads::cpu13.data           8367                       # Number of read requests responded to by this memory
system.mem_ctrls.num_reads::cpu14.inst              3                       # Number of read requests responded to by this memory
system.mem_ctrls.num_reads::cpu14.data           8873                       # Number of read requests responded to by this memory
system.mem_ctrls.num_reads::cpu15.inst             14                       # Number of read requests responded to by this memory
system.mem_ctrls.num_reads::cpu15.data           8968                       # Number of read requests responded to by this memory
system.mem_ctrls.num_reads::total              155776                       # Number of read requests responded to by this memory
system.mem_ctrls.num_writes::writebacks         91691                       # Number of write requests responded to by this memory
system.mem_ctrls.num_writes::total              91691                       # Number of write requests responded to by this memory
system.mem_ctrls.bw_read::cpu00.inst         12700898                       # Total read bandwidth from this memory (bytes/s)
system.mem_ctrls.bw_read::cpu00.data         87729343                       # Total read bandwidth from this memory (bytes/s)
system.mem_ctrls.bw_read::cpu01.inst          1271349                       # Total read bandwidth from this memory (bytes/s)
system.mem_ctrls.bw_read::cpu01.data         59564567                       # Total read bandwidth from this memory (bytes/s)
system.mem_ctrls.bw_read::cpu02.inst           132170                       # Total read bandwidth from this memory (bytes/s)
system.mem_ctrls.bw_read::cpu02.data         61012142                       # Total read bandwidth from this memory (bytes/s)
system.mem_ctrls.bw_read::cpu03.inst            25175                       # Total read bandwidth from this memory (bytes/s)
system.mem_ctrls.bw_read::cpu03.data         59998840                       # Total read bandwidth from this memory (bytes/s)
system.mem_ctrls.bw_read::cpu04.inst             6294                       # Total read bandwidth from this memory (bytes/s)
system.mem_ctrls.bw_read::cpu04.data         62661119                       # Total read bandwidth from this memory (bytes/s)
system.mem_ctrls.bw_read::cpu05.inst             6294                       # Total read bandwidth from this memory (bytes/s)
system.mem_ctrls.bw_read::cpu05.data         59658974                       # Total read bandwidth from this memory (bytes/s)
system.mem_ctrls.bw_read::cpu06.inst            25175                       # Total read bandwidth from this memory (bytes/s)
system.mem_ctrls.bw_read::cpu06.data         60905148                       # Total read bandwidth from this memory (bytes/s)
system.mem_ctrls.bw_read::cpu07.inst            12588                       # Total read bandwidth from this memory (bytes/s)
system.mem_ctrls.bw_read::cpu07.data         59526804                       # Total read bandwidth from this memory (bytes/s)
system.mem_ctrls.bw_read::cpu08.data         64033169                       # Total read bandwidth from this memory (bytes/s)
system.mem_ctrls.bw_read::cpu09.data         54158189                       # Total read bandwidth from this memory (bytes/s)
system.mem_ctrls.bw_read::cpu10.inst             6294                       # Total read bandwidth from this memory (bytes/s)
system.mem_ctrls.bw_read::cpu10.data         61213544                       # Total read bandwidth from this memory (bytes/s)
system.mem_ctrls.bw_read::cpu11.inst             6294                       # Total read bandwidth from this memory (bytes/s)
system.mem_ctrls.bw_read::cpu11.data         53642097                       # Total read bandwidth from this memory (bytes/s)
system.mem_ctrls.bw_read::cpu12.inst           113288                       # Total read bandwidth from this memory (bytes/s)
system.mem_ctrls.bw_read::cpu12.data         56952638                       # Total read bandwidth from this memory (bytes/s)
system.mem_ctrls.bw_read::cpu13.inst             6294                       # Total read bandwidth from this memory (bytes/s)
system.mem_ctrls.bw_read::cpu13.data         52660264                       # Total read bandwidth from this memory (bytes/s)
system.mem_ctrls.bw_read::cpu14.inst            18881                       # Total read bandwidth from this memory (bytes/s)
system.mem_ctrls.bw_read::cpu14.data         55844929                       # Total read bandwidth from this memory (bytes/s)
system.mem_ctrls.bw_read::cpu15.inst            88113                       # Total read bandwidth from this memory (bytes/s)
system.mem_ctrls.bw_read::cpu15.data         56442840                       # Total read bandwidth from this memory (bytes/s)
system.mem_ctrls.bw_read::total             980423715                       # Total read bandwidth from this memory (bytes/s)
system.mem_ctrls.bw_inst_read::cpu00.inst     12700898                       # Instruction read bandwidth from this memory (bytes/s)
system.mem_ctrls.bw_inst_read::cpu01.inst      1271349                       # Instruction read bandwidth from this memory (bytes/s)
system.mem_ctrls.bw_inst_read::cpu02.inst       132170                       # Instruction read bandwidth from this memory (bytes/s)
system.mem_ctrls.bw_inst_read::cpu03.inst        25175                       # Instruction read bandwidth from this memory (bytes/s)
system.mem_ctrls.bw_inst_read::cpu04.inst         6294                       # Instruction read bandwidth from this memory (bytes/s)
system.mem_ctrls.bw_inst_read::cpu05.inst         6294                       # Instruction read bandwidth from this memory (bytes/s)
system.mem_ctrls.bw_inst_read::cpu06.inst        25175                       # Instruction read bandwidth from this memory (bytes/s)
system.mem_ctrls.bw_inst_read::cpu07.inst        12588                       # Instruction read bandwidth from this memory (bytes/s)
system.mem_ctrls.bw_inst_read::cpu10.inst         6294                       # Instruction read bandwidth from this memory (bytes/s)
system.mem_ctrls.bw_inst_read::cpu11.inst         6294                       # Instruction read bandwidth from this memory (bytes/s)
system.mem_ctrls.bw_inst_read::cpu12.inst       113288                       # Instruction read bandwidth from this memory (bytes/s)
system.mem_ctrls.bw_inst_read::cpu13.inst         6294                       # Instruction read bandwidth from this memory (bytes/s)
system.mem_ctrls.bw_inst_read::cpu14.inst        18881                       # Instruction read bandwidth from this memory (bytes/s)
system.mem_ctrls.bw_inst_read::cpu15.inst        88113                       # Instruction read bandwidth from this memory (bytes/s)
system.mem_ctrls.bw_inst_read::total         14419106                       # Instruction read bandwidth from this memory (bytes/s)
system.mem_ctrls.bw_write::writebacks       577085243                       # Write bandwidth from this memory (bytes/s)
system.mem_ctrls.bw_write::total            577085243                       # Write bandwidth from this memory (bytes/s)
system.mem_ctrls.bw_total::writebacks       577085243                       # Total bandwidth to/from this memory (bytes/s)
system.mem_ctrls.bw_total::cpu00.inst        12700898                       # Total bandwidth to/from this memory (bytes/s)
system.mem_ctrls.bw_total::cpu00.data        87729343                       # Total bandwidth to/from this memory (bytes/s)
system.mem_ctrls.bw_total::cpu01.inst         1271349                       # Total bandwidth to/from this memory (bytes/s)
system.mem_ctrls.bw_total::cpu01.data        59564567                       # Total bandwidth to/from this memory (bytes/s)
system.mem_ctrls.bw_total::cpu02.inst          132170                       # Total bandwidth to/from this memory (bytes/s)
system.mem_ctrls.bw_total::cpu02.data        61012142                       # Total bandwidth to/from this memory (bytes/s)
system.mem_ctrls.bw_total::cpu03.inst           25175                       # Total bandwidth to/from this memory (bytes/s)
system.mem_ctrls.bw_total::cpu03.data        59998840                       # Total bandwidth to/from this memory (bytes/s)
system.mem_ctrls.bw_total::cpu04.inst            6294                       # Total bandwidth to/from this memory (bytes/s)
system.mem_ctrls.bw_total::cpu04.data        62661119                       # Total bandwidth to/from this memory (bytes/s)
system.mem_ctrls.bw_total::cpu05.inst            6294                       # Total bandwidth to/from this memory (bytes/s)
system.mem_ctrls.bw_total::cpu05.data        59658974                       # Total bandwidth to/from this memory (bytes/s)
system.mem_ctrls.bw_total::cpu06.inst           25175                       # Total bandwidth to/from this memory (bytes/s)
system.mem_ctrls.bw_total::cpu06.data        60905148                       # Total bandwidth to/from this memory (bytes/s)
system.mem_ctrls.bw_total::cpu07.inst           12588                       # Total bandwidth to/from this memory (bytes/s)
system.mem_ctrls.bw_total::cpu07.data        59526804                       # Total bandwidth to/from this memory (bytes/s)
system.mem_ctrls.bw_total::cpu08.data        64033169                       # Total bandwidth to/from this memory (bytes/s)
system.mem_ctrls.bw_total::cpu09.data        54158189                       # Total bandwidth to/from this memory (bytes/s)
system.mem_ctrls.bw_total::cpu10.inst            6294                       # Total bandwidth to/from this memory (bytes/s)
system.mem_ctrls.bw_total::cpu10.data        61213544                       # Total bandwidth to/from this memory (bytes/s)
system.mem_ctrls.bw_total::cpu11.inst            6294                       # Total bandwidth to/from this memory (bytes/s)
system.mem_ctrls.bw_total::cpu11.data        53642097                       # Total bandwidth to/from this memory (bytes/s)
system.mem_ctrls.bw_total::cpu12.inst          113288                       # Total bandwidth to/from this memory (bytes/s)
system.mem_ctrls.bw_total::cpu12.data        56952638                       # Total bandwidth to/from this memory (bytes/s)
system.mem_ctrls.bw_total::cpu13.inst            6294                       # Total bandwidth to/from this memory (bytes/s)
system.mem_ctrls.bw_total::cpu13.data        52660264                       # Total bandwidth to/from this memory (bytes/s)
system.mem_ctrls.bw_total::cpu14.inst           18881                       # Total bandwidth to/from this memory (bytes/s)
system.mem_ctrls.bw_total::cpu14.data        55844929                       # Total bandwidth to/from this memory (bytes/s)
system.mem_ctrls.bw_total::cpu15.inst           88113                       # Total bandwidth to/from this memory (bytes/s)
system.mem_ctrls.bw_total::cpu15.data        56442840                       # Total bandwidth to/from this memory (bytes/s)
system.mem_ctrls.bw_total::total           1557508958                       # Total bandwidth to/from this memory (bytes/s)
system.cpu00.branchPred.lookups                333003                       # Number of BP lookups
system.cpu00.branchPred.condPredicted          167573                       # Number of conditional branches predicted
system.cpu00.branchPred.condIncorrect            5331                       # Number of conditional branches incorrect
system.cpu00.branchPred.BTBLookups             233426                       # Number of BTB lookups
system.cpu00.branchPred.BTBHits                210855                       # Number of BTB hits
system.cpu00.branchPred.BTBCorrect                  0                       # Number of correct BTB predictions (this stat may not work properly.
system.cpu00.branchPred.BTBHitPct           90.330554                       # BTB Hit Percentage
system.cpu00.branchPred.usedRAS                 79754                       # Number of times the RAS was used to get a target.
system.cpu00.branchPred.RASInCorrect               84                       # Number of incorrect RAS predictions.
system.cpu00.branchPred.indirectLookups          1708                       # Number of indirect predictor lookups.
system.cpu00.branchPred.indirectHits              973                       # Number of indirect target hits.
system.cpu00.branchPred.indirectMisses            735                       # Number of indirect misses.
system.cpu00.branchPredindirectMispredicted          227                       # Number of mispredicted indirect branches.
system.cpu_voltage_domain.voltage                   1                       # Voltage in Volts
system.cpu_clk_domain.clock                      1161                       # Clock period in ticks
system.cpu00.dtb.fetch_hits                         0                       # ITB hits
system.cpu00.dtb.fetch_misses                       0                       # ITB misses
system.cpu00.dtb.fetch_acv                          0                       # ITB acv
system.cpu00.dtb.fetch_accesses                     0                       # ITB accesses
system.cpu00.dtb.read_hits                    1178640                       # DTB read hits
system.cpu00.dtb.read_misses                     7885                       # DTB read misses
system.cpu00.dtb.read_acv                           2                       # DTB read access violations
system.cpu00.dtb.read_accesses                1186525                       # DTB read accesses
system.cpu00.dtb.write_hits                    355051                       # DTB write hits
system.cpu00.dtb.write_misses                   59993                       # DTB write misses
system.cpu00.dtb.write_acv                          0                       # DTB write access violations
system.cpu00.dtb.write_accesses                415044                       # DTB write accesses
system.cpu00.dtb.data_hits                    1533691                       # DTB hits
system.cpu00.dtb.data_misses                    67878                       # DTB misses
system.cpu00.dtb.data_acv                           2                       # DTB access violations
system.cpu00.dtb.data_accesses                1601569                       # DTB accesses
system.cpu00.itb.fetch_hits                    767831                       # ITB hits
system.cpu00.itb.fetch_misses                     171                       # ITB misses
system.cpu00.itb.fetch_acv                          0                       # ITB acv
system.cpu00.itb.fetch_accesses                768002                       # ITB accesses
system.cpu00.itb.read_hits                          0                       # DTB read hits
system.cpu00.itb.read_misses                        0                       # DTB read misses
system.cpu00.itb.read_acv                           0                       # DTB read access violations
system.cpu00.itb.read_accesses                      0                       # DTB read accesses
system.cpu00.itb.write_hits                         0                       # DTB write hits
system.cpu00.itb.write_misses                       0                       # DTB write misses
system.cpu00.itb.write_acv                          0                       # DTB write access violations
system.cpu00.itb.write_accesses                     0                       # DTB write accesses
system.cpu00.itb.data_hits                          0                       # DTB hits
system.cpu00.itb.data_misses                        0                       # DTB misses
system.cpu00.itb.data_acv                           0                       # DTB access violations
system.cpu00.itb.data_accesses                      0                       # DTB accesses
system.cpu00.workload.num_syscalls               1707                       # Number of system calls
system.cpu00.numCycles                        8471740                       # number of cpu cycles simulated
system.cpu00.numWorkItemsStarted                    0                       # number of work items this cpu started
system.cpu00.numWorkItemsCompleted                  0                       # number of work items this cpu completed
system.cpu00.fetch.icacheStallCycles            85939                       # Number of cycles fetch is stalled on an Icache miss
system.cpu00.fetch.Insts                      7378016                       # Number of instructions fetch has processed
system.cpu00.fetch.Branches                    333003                       # Number of branches that fetch encountered
system.cpu00.fetch.predictedBranches           291582                       # Number of branches that fetch has predicted taken
system.cpu00.fetch.Cycles                     8142056                       # Number of cycles fetch has run and was not squashing or blocked
system.cpu00.fetch.SquashCycles                 48506                       # Number of cycles fetch has spent squashing
system.cpu00.fetch.MiscStallCycles                 99                       # Number of cycles fetch has spent waiting on interrupts, or bad addresses, or out of MSHRs
system.cpu00.fetch.PendingTrapStallCycles         6911                       # Number of stall cycles due to pending traps
system.cpu00.fetch.IcacheWaitRetryStallCycles           74                       # Number of stall cycles due to full MSHR
system.cpu00.fetch.CacheLines                  767831                       # Number of cache lines fetched
system.cpu00.fetch.IcacheSquashes                2497                       # Number of outstanding Icache misses that were squashed
system.cpu00.fetch.rateDist::samples          8259332                       # Number of instructions fetched each cycle (Total)
system.cpu00.fetch.rateDist::mean            0.893295                       # Number of instructions fetched each cycle (Total)
system.cpu00.fetch.rateDist::stdev           2.252296                       # Number of instructions fetched each cycle (Total)
system.cpu00.fetch.rateDist::underflows             0      0.00%      0.00% # Number of instructions fetched each cycle (Total)
system.cpu00.fetch.rateDist::0                6906710     83.62%     83.62% # Number of instructions fetched each cycle (Total)
system.cpu00.fetch.rateDist::1                  35701      0.43%     84.06% # Number of instructions fetched each cycle (Total)
system.cpu00.fetch.rateDist::2                 258651      3.13%     87.19% # Number of instructions fetched each cycle (Total)
system.cpu00.fetch.rateDist::3                  30412      0.37%     87.56% # Number of instructions fetched each cycle (Total)
system.cpu00.fetch.rateDist::4                 268382      3.25%     90.80% # Number of instructions fetched each cycle (Total)
system.cpu00.fetch.rateDist::5                  49825      0.60%     91.41% # Number of instructions fetched each cycle (Total)
system.cpu00.fetch.rateDist::6                  89421      1.08%     92.49% # Number of instructions fetched each cycle (Total)
system.cpu00.fetch.rateDist::7                  87242      1.06%     93.55% # Number of instructions fetched each cycle (Total)
system.cpu00.fetch.rateDist::8                 532988      6.45%    100.00% # Number of instructions fetched each cycle (Total)
system.cpu00.fetch.rateDist::overflows              0      0.00%    100.00% # Number of instructions fetched each cycle (Total)
system.cpu00.fetch.rateDist::min_value              0                       # Number of instructions fetched each cycle (Total)
system.cpu00.fetch.rateDist::max_value              8                       # Number of instructions fetched each cycle (Total)
system.cpu00.fetch.rateDist::total            8259332                       # Number of instructions fetched each cycle (Total)
system.cpu00.fetch.branchRate                0.039308                       # Number of branch fetches per cycle
system.cpu00.fetch.rate                      0.870897                       # Number of inst fetches per cycle
system.cpu00.decode.IdleCycles                 255572                       # Number of cycles decode is idle
system.cpu00.decode.BlockedCycles             7139351                       # Number of cycles decode is blocked
system.cpu00.decode.RunCycles                  334313                       # Number of cycles decode is running
system.cpu00.decode.UnblockCycles              507517                       # Number of cycles decode is unblocking
system.cpu00.decode.SquashCycles                22579                       # Number of cycles decode is squashing
system.cpu00.decode.BranchResolved              81719                       # Number of times decode resolved a branch
system.cpu00.decode.BranchMispred                1722                       # Number of times decode detected a branch misprediction
system.cpu00.decode.DecodedInsts              6493875                       # Number of instructions handled by decode
system.cpu00.decode.SquashedInsts                7146                       # Number of squashed instructions handled by decode
system.cpu00.rename.SquashCycles                22579                       # Number of cycles rename is squashing
system.cpu00.rename.IdleCycles                 378372                       # Number of cycles rename is idle
system.cpu00.rename.BlockCycles               3093345                       # Number of cycles rename is blocking
system.cpu00.rename.serializeStallCycles        92334                       # count of cycles rename stalled for serializing inst
system.cpu00.rename.RunCycles                  641127                       # Number of cycles rename is running
system.cpu00.rename.UnblockCycles             4031575                       # Number of cycles rename is unblocking
system.cpu00.rename.RenamedInsts              6327015                       # Number of instructions processed by rename
system.cpu00.rename.ROBFullEvents                2500                       # Number of times rename has blocked due to ROB full
system.cpu00.rename.IQFullEvents              2087006                       # Number of times rename has blocked due to IQ full
system.cpu00.rename.LQFullEvents              1665161                       # Number of times rename has blocked due to LQ full
system.cpu00.rename.SQFullEvents               243543                       # Number of times rename has blocked due to SQ full
system.cpu00.rename.RenamedOperands           5427663                       # Number of destination operands rename has renamed
system.cpu00.rename.RenameLookups             9150823                       # Number of register rename lookups that rename has made
system.cpu00.rename.int_rename_lookups        5132513                       # Number of integer rename lookups
system.cpu00.rename.fp_rename_lookups         4018058                       # Number of floating rename lookups
system.cpu00.rename.CommittedMaps             3931232                       # Number of HB maps that are committed
system.cpu00.rename.UndoneMaps                1496431                       # Number of HB maps that are undone due to squashing
system.cpu00.rename.serializingInsts             2288                       # count of serializing insts renamed
system.cpu00.rename.tempSerializingInsts         1947                       # count of temporary serializing insts renamed
system.cpu00.rename.skidInsts                 3387880                       # count of insts added to the skid buffer
system.cpu00.memDep0.insertedLoads            1198040                       # Number of loads inserted to the mem dependence unit.
system.cpu00.memDep0.insertedStores            532780                       # Number of stores inserted to the mem dependence unit.
system.cpu00.memDep0.conflictingLoads          370985                       # Number of conflicting loads.
system.cpu00.memDep0.conflictingStores         194530                       # Number of conflicting stores.
system.cpu00.iq.iqInstsAdded                  6223577                       # Number of instructions added to the IQ (excludes non-spec)
system.cpu00.iq.iqNonSpecInstsAdded              3192                       # Number of non-speculative instructions added to the IQ
system.cpu00.iq.iqInstsIssued                 5931525                       # Number of instructions issued
system.cpu00.iq.iqSquashedInstsIssued            7251                       # Number of squashed instructions issued
system.cpu00.iq.iqSquashedInstsExamined       1880732                       # Number of squashed instructions iterated over during squash; mainly for profiling
system.cpu00.iq.iqSquashedOperandsExamined       773194                       # Number of squashed operands that are examined and possibly removed from graph
system.cpu00.iq.iqSquashedNonSpecRemoved          489                       # Number of squashed non-spec instructions that were removed
system.cpu00.iq.issued_per_cycle::samples      8259332                       # Number of insts issued each cycle
system.cpu00.iq.issued_per_cycle::mean       0.718160                       # Number of insts issued each cycle
system.cpu00.iq.issued_per_cycle::stdev      1.210415                       # Number of insts issued each cycle
system.cpu00.iq.issued_per_cycle::underflows            0      0.00%      0.00% # Number of insts issued each cycle
system.cpu00.iq.issued_per_cycle::0           4784115     57.92%     57.92% # Number of insts issued each cycle
system.cpu00.iq.issued_per_cycle::1           2248014     27.22%     85.14% # Number of insts issued each cycle
system.cpu00.iq.issued_per_cycle::2            712285      8.62%     93.77% # Number of insts issued each cycle
system.cpu00.iq.issued_per_cycle::3            217406      2.63%     96.40% # Number of insts issued each cycle
system.cpu00.iq.issued_per_cycle::4            115411      1.40%     97.80% # Number of insts issued each cycle
system.cpu00.iq.issued_per_cycle::5             65678      0.80%     98.59% # Number of insts issued each cycle
system.cpu00.iq.issued_per_cycle::6             43790      0.53%     99.12% # Number of insts issued each cycle
system.cpu00.iq.issued_per_cycle::7             27115      0.33%     99.45% # Number of insts issued each cycle
system.cpu00.iq.issued_per_cycle::8             45518      0.55%    100.00% # Number of insts issued each cycle
system.cpu00.iq.issued_per_cycle::overflows            0      0.00%    100.00% # Number of insts issued each cycle
system.cpu00.iq.issued_per_cycle::min_value            0                       # Number of insts issued each cycle
system.cpu00.iq.issued_per_cycle::max_value            8                       # Number of insts issued each cycle
system.cpu00.iq.issued_per_cycle::total       8259332                       # Number of insts issued each cycle
system.cpu00.iq.fu_full::No_OpClass                 0      0.00%      0.00% # attempts to use FU when none available
system.cpu00.iq.fu_full::IntAlu                  4490      9.95%      9.95% # attempts to use FU when none available
system.cpu00.iq.fu_full::IntMult                    0      0.00%      9.95% # attempts to use FU when none available
system.cpu00.iq.fu_full::IntDiv                     0      0.00%      9.95% # attempts to use FU when none available
system.cpu00.iq.fu_full::FloatAdd                   0      0.00%      9.95% # attempts to use FU when none available
system.cpu00.iq.fu_full::FloatCmp                   0      0.00%      9.95% # attempts to use FU when none available
system.cpu00.iq.fu_full::FloatCvt                   0      0.00%      9.95% # attempts to use FU when none available
system.cpu00.iq.fu_full::FloatMult               8237     18.26%     28.22% # attempts to use FU when none available
system.cpu00.iq.fu_full::FloatDiv                   0      0.00%     28.22% # attempts to use FU when none available
system.cpu00.iq.fu_full::FloatSqrt                  0      0.00%     28.22% # attempts to use FU when none available
system.cpu00.iq.fu_full::SimdAdd                    0      0.00%     28.22% # attempts to use FU when none available
system.cpu00.iq.fu_full::SimdAddAcc                 0      0.00%     28.22% # attempts to use FU when none available
system.cpu00.iq.fu_full::SimdAlu                    0      0.00%     28.22% # attempts to use FU when none available
system.cpu00.iq.fu_full::SimdCmp                    0      0.00%     28.22% # attempts to use FU when none available
system.cpu00.iq.fu_full::SimdCvt                    0      0.00%     28.22% # attempts to use FU when none available
system.cpu00.iq.fu_full::SimdMisc                   0      0.00%     28.22% # attempts to use FU when none available
system.cpu00.iq.fu_full::SimdMult                   0      0.00%     28.22% # attempts to use FU when none available
system.cpu00.iq.fu_full::SimdMultAcc                0      0.00%     28.22% # attempts to use FU when none available
system.cpu00.iq.fu_full::SimdShift                  0      0.00%     28.22% # attempts to use FU when none available
system.cpu00.iq.fu_full::SimdShiftAcc               0      0.00%     28.22% # attempts to use FU when none available
system.cpu00.iq.fu_full::SimdSqrt                   0      0.00%     28.22% # attempts to use FU when none available
system.cpu00.iq.fu_full::SimdFloatAdd               0      0.00%     28.22% # attempts to use FU when none available
system.cpu00.iq.fu_full::SimdFloatAlu               0      0.00%     28.22% # attempts to use FU when none available
system.cpu00.iq.fu_full::SimdFloatCmp               0      0.00%     28.22% # attempts to use FU when none available
system.cpu00.iq.fu_full::SimdFloatCvt               0      0.00%     28.22% # attempts to use FU when none available
system.cpu00.iq.fu_full::SimdFloatDiv               0      0.00%     28.22% # attempts to use FU when none available
system.cpu00.iq.fu_full::SimdFloatMisc              0      0.00%     28.22% # attempts to use FU when none available
system.cpu00.iq.fu_full::SimdFloatMult              0      0.00%     28.22% # attempts to use FU when none available
system.cpu00.iq.fu_full::SimdFloatMultAcc            0      0.00%     28.22% # attempts to use FU when none available
system.cpu00.iq.fu_full::SimdFloatSqrt              0      0.00%     28.22% # attempts to use FU when none available
system.cpu00.iq.fu_full::MemRead                25355     56.21%     84.43% # attempts to use FU when none available
system.cpu00.iq.fu_full::MemWrite                7022     15.57%    100.00% # attempts to use FU when none available
system.cpu00.iq.fu_full::IprAccess                  0      0.00%    100.00% # attempts to use FU when none available
system.cpu00.iq.fu_full::InstPrefetch               0      0.00%    100.00% # attempts to use FU when none available
system.cpu00.iq.FU_type_0::No_OpClass               0      0.00%      0.00% # Type of FU issued
system.cpu00.iq.FU_type_0::IntAlu             1756849     29.62%     29.62% # Type of FU issued
system.cpu00.iq.FU_type_0::IntMult                251      0.00%     29.62% # Type of FU issued
system.cpu00.iq.FU_type_0::IntDiv                   0      0.00%     29.62% # Type of FU issued
system.cpu00.iq.FU_type_0::FloatAdd           1713570     28.89%     58.51% # Type of FU issued
system.cpu00.iq.FU_type_0::FloatCmp                11      0.00%     58.51% # Type of FU issued
system.cpu00.iq.FU_type_0::FloatCvt                 0      0.00%     58.51% # Type of FU issued
system.cpu00.iq.FU_type_0::FloatMult           852373     14.37%     72.88% # Type of FU issued
system.cpu00.iq.FU_type_0::FloatDiv                 0      0.00%     72.88% # Type of FU issued
system.cpu00.iq.FU_type_0::FloatSqrt                0      0.00%     72.88% # Type of FU issued
system.cpu00.iq.FU_type_0::SimdAdd                  0      0.00%     72.88% # Type of FU issued
system.cpu00.iq.FU_type_0::SimdAddAcc               0      0.00%     72.88% # Type of FU issued
system.cpu00.iq.FU_type_0::SimdAlu                  0      0.00%     72.88% # Type of FU issued
system.cpu00.iq.FU_type_0::SimdCmp                  0      0.00%     72.88% # Type of FU issued
system.cpu00.iq.FU_type_0::SimdCvt                  0      0.00%     72.88% # Type of FU issued
system.cpu00.iq.FU_type_0::SimdMisc                 0      0.00%     72.88% # Type of FU issued
system.cpu00.iq.FU_type_0::SimdMult                 0      0.00%     72.88% # Type of FU issued
system.cpu00.iq.FU_type_0::SimdMultAcc              0      0.00%     72.88% # Type of FU issued
system.cpu00.iq.FU_type_0::SimdShift                0      0.00%     72.88% # Type of FU issued
system.cpu00.iq.FU_type_0::SimdShiftAcc             0      0.00%     72.88% # Type of FU issued
system.cpu00.iq.FU_type_0::SimdSqrt                 0      0.00%     72.88% # Type of FU issued
system.cpu00.iq.FU_type_0::SimdFloatAdd             0      0.00%     72.88% # Type of FU issued
system.cpu00.iq.FU_type_0::SimdFloatAlu             0      0.00%     72.88% # Type of FU issued
system.cpu00.iq.FU_type_0::SimdFloatCmp             0      0.00%     72.88% # Type of FU issued
system.cpu00.iq.FU_type_0::SimdFloatCvt             0      0.00%     72.88% # Type of FU issued
system.cpu00.iq.FU_type_0::SimdFloatDiv             0      0.00%     72.88% # Type of FU issued
system.cpu00.iq.FU_type_0::SimdFloatMisc            0      0.00%     72.88% # Type of FU issued
system.cpu00.iq.FU_type_0::SimdFloatMult            0      0.00%     72.88% # Type of FU issued
system.cpu00.iq.FU_type_0::SimdFloatMultAcc            0      0.00%     72.88% # Type of FU issued
system.cpu00.iq.FU_type_0::SimdFloatSqrt            0      0.00%     72.88% # Type of FU issued
system.cpu00.iq.FU_type_0::MemRead            1191216     20.08%     92.97% # Type of FU issued
system.cpu00.iq.FU_type_0::MemWrite            417255      7.03%    100.00% # Type of FU issued
system.cpu00.iq.FU_type_0::IprAccess                0      0.00%    100.00% # Type of FU issued
system.cpu00.iq.FU_type_0::InstPrefetch             0      0.00%    100.00% # Type of FU issued
system.cpu00.iq.FU_type_0::total              5931525                       # Type of FU issued
system.cpu00.iq.rate                         0.700154                       # Inst issue rate
system.cpu00.iq.fu_busy_cnt                     45104                       # FU busy when requested
system.cpu00.iq.fu_busy_rate                 0.007604                       # FU busy rate (busy events/executed inst)
system.cpu00.iq.int_inst_queue_reads         14442976                       # Number of integer instruction queue reads
system.cpu00.iq.int_inst_queue_writes         5243950                       # Number of integer instruction queue writes
system.cpu00.iq.int_inst_queue_wakeup_accesses      2877156                       # Number of integer instruction queue wakeup accesses
system.cpu00.iq.fp_inst_queue_reads           5731761                       # Number of floating instruction queue reads
system.cpu00.iq.fp_inst_queue_writes          2864050                       # Number of floating instruction queue writes
system.cpu00.iq.fp_inst_queue_wakeup_accesses      2861636                       # Number of floating instruction queue wakeup accesses
system.cpu00.iq.int_alu_accesses              3106592                       # Number of integer alu accesses
system.cpu00.iq.fp_alu_accesses               2870037                       # Number of floating point alu accesses
system.cpu00.iew.lsq.thread0.forwLoads           9505                       # Number of loads that had data forwarded from stores
system.cpu00.iew.lsq.thread0.invAddrLoads            0                       # Number of loads ignored due to an invalid address
system.cpu00.iew.lsq.thread0.squashedLoads       595217                       # Number of loads squashed
system.cpu00.iew.lsq.thread0.ignoredResponses           43                       # Number of memory responses ignored because the instruction is squashed
system.cpu00.iew.lsq.thread0.memOrderViolation          507                       # Number of memory ordering violations
system.cpu00.iew.lsq.thread0.squashedStores       320652                       # Number of stores squashed
system.cpu00.iew.lsq.thread0.invAddrSwpfs            0                       # Number of software prefetches ignored due to an invalid address
system.cpu00.iew.lsq.thread0.blockedLoads            0                       # Number of blocked loads due to partial load-store forwarding
system.cpu00.iew.lsq.thread0.rescheduledLoads          261                       # Number of loads that were rescheduled
system.cpu00.iew.lsq.thread0.cacheBlocked        99695                       # Number of times an access to memory failed due to the cache being blocked
system.cpu00.iew.iewIdleCycles                      0                       # Number of cycles IEW is idle
system.cpu00.iew.iewSquashCycles                22579                       # Number of cycles IEW is squashing
system.cpu00.iew.iewBlockCycles               1004253                       # Number of cycles IEW is blocking
system.cpu00.iew.iewUnblockCycles              770374                       # Number of cycles IEW is unblocking
system.cpu00.iew.iewDispatchedInsts           6293058                       # Number of instructions dispatched to IQ
system.cpu00.iew.iewDispSquashedInsts            1165                       # Number of squashed instructions skipped by dispatch
system.cpu00.iew.iewDispLoadInsts             1198040                       # Number of dispatched load instructions
system.cpu00.iew.iewDispStoreInsts             532780                       # Number of dispatched store instructions
system.cpu00.iew.iewDispNonSpecInsts             1867                       # Number of dispatched non-speculative instructions
system.cpu00.iew.iewIQFullEvents                44150                       # Number of times the IQ has become full, causing a stall
system.cpu00.iew.iewLSQFullEvents              620381                       # Number of times the LSQ has become full, causing a stall
system.cpu00.iew.memOrderViolationEvents          507                       # Number of memory order violations
system.cpu00.iew.predictedTakenIncorrect         1496                       # Number of branches that were predicted taken incorrectly
system.cpu00.iew.predictedNotTakenIncorrect         2933                       # Number of branches that were predicted not taken incorrectly
system.cpu00.iew.branchMispredicts               4429                       # Number of branch mispredicts detected at execute
system.cpu00.iew.iewExecutedInsts             5922442                       # Number of executed instructions
system.cpu00.iew.iewExecLoadInsts             1186542                       # Number of load instructions executed
system.cpu00.iew.iewExecSquashedInsts            9083                       # Number of squashed instructions skipped in execute
system.cpu00.iew.exec_swp                           0                       # number of swp insts executed
system.cpu00.iew.exec_nop                       66289                       # number of nop insts executed
system.cpu00.iew.exec_refs                    1601609                       # number of memory reference insts executed
system.cpu00.iew.exec_branches                 287849                       # Number of branches executed
system.cpu00.iew.exec_stores                   415067                       # Number of stores executed
system.cpu00.iew.exec_rate                   0.699082                       # Inst execution rate
system.cpu00.iew.wb_sent                      5808852                       # cumulative count of insts sent to commit
system.cpu00.iew.wb_count                     5738792                       # cumulative count of insts written-back
system.cpu00.iew.wb_producers                 4531651                       # num instructions producing a value
system.cpu00.iew.wb_consumers                 5926527                       # num instructions consuming a value
system.cpu00.iew.wb_rate                     0.677404                       # insts written-back per cycle
system.cpu00.iew.wb_fanout                   0.764639                       # average fanout of values written-back
system.cpu00.commit.commitSquashedInsts       1877599                       # The number of squashed insts skipped by commit
system.cpu00.commit.commitNonSpecStalls          2703                       # The number of times commit has been forced to stall to communicate backwards
system.cpu00.commit.branchMispredicts            3657                       # The number of times a branch was mispredicted
system.cpu00.commit.committed_per_cycle::samples      8011323                       # Number of insts commited each cycle
system.cpu00.commit.committed_per_cycle::mean     0.549770                       # Number of insts commited each cycle
system.cpu00.commit.committed_per_cycle::stdev     1.302231                       # Number of insts commited each cycle
system.cpu00.commit.committed_per_cycle::underflows            0      0.00%      0.00% # Number of insts commited each cycle
system.cpu00.commit.committed_per_cycle::0      5788573     72.25%     72.25% # Number of insts commited each cycle
system.cpu00.commit.committed_per_cycle::1      1333023     16.64%     88.89% # Number of insts commited each cycle
system.cpu00.commit.committed_per_cycle::2       495394      6.18%     95.08% # Number of insts commited each cycle
system.cpu00.commit.committed_per_cycle::3       140497      1.75%     96.83% # Number of insts commited each cycle
system.cpu00.commit.committed_per_cycle::4        20522      0.26%     97.09% # Number of insts commited each cycle
system.cpu00.commit.committed_per_cycle::5        80971      1.01%     98.10% # Number of insts commited each cycle
system.cpu00.commit.committed_per_cycle::6        12231      0.15%     98.25% # Number of insts commited each cycle
system.cpu00.commit.committed_per_cycle::7        22142      0.28%     98.53% # Number of insts commited each cycle
system.cpu00.commit.committed_per_cycle::8       117970      1.47%    100.00% # Number of insts commited each cycle
system.cpu00.commit.committed_per_cycle::overflows            0      0.00%    100.00% # Number of insts commited each cycle
system.cpu00.commit.committed_per_cycle::min_value            0                       # Number of insts commited each cycle
system.cpu00.commit.committed_per_cycle::max_value            8                       # Number of insts commited each cycle
system.cpu00.commit.committed_per_cycle::total      8011323                       # Number of insts commited each cycle
system.cpu00.commit.committedInsts            4404385                       # Number of instructions committed
system.cpu00.commit.committedOps              4404385                       # Number of ops (including micro ops) committed
system.cpu00.commit.swp_count                       0                       # Number of s/w prefetches committed
system.cpu00.commit.refs                       814951                       # Number of memory references committed
system.cpu00.commit.loads                      602823                       # Number of loads committed
system.cpu00.commit.membars                      1140                       # Number of memory barriers committed
system.cpu00.commit.branches                   242103                       # Number of branches committed
system.cpu00.commit.fp_insts                  2860888                       # Number of committed floating point instructions.
system.cpu00.commit.int_insts                 1784951                       # Number of committed integer instructions.
system.cpu00.commit.function_calls              75183                       # Number of function calls committed.
system.cpu00.commit.op_class_0::No_OpClass        58349      1.32%      1.32% # Class of committed instruction
system.cpu00.commit.op_class_0::IntAlu         964372     21.90%     23.22% # Class of committed instruction
system.cpu00.commit.op_class_0::IntMult           244      0.01%     23.23% # Class of committed instruction
system.cpu00.commit.op_class_0::IntDiv              0      0.00%     23.23% # Class of committed instruction
system.cpu00.commit.op_class_0::FloatAdd      1713053     38.89%     62.12% # Class of committed instruction
system.cpu00.commit.op_class_0::FloatCmp           10      0.00%     62.12% # Class of committed instruction
system.cpu00.commit.op_class_0::FloatCvt            0      0.00%     62.12% # Class of committed instruction
system.cpu00.commit.op_class_0::FloatMult       852265     19.35%     81.47% # Class of committed instruction
system.cpu00.commit.op_class_0::FloatDiv            0      0.00%     81.47% # Class of committed instruction
system.cpu00.commit.op_class_0::FloatSqrt            0      0.00%     81.47% # Class of committed instruction
system.cpu00.commit.op_class_0::SimdAdd             0      0.00%     81.47% # Class of committed instruction
system.cpu00.commit.op_class_0::SimdAddAcc            0      0.00%     81.47% # Class of committed instruction
system.cpu00.commit.op_class_0::SimdAlu             0      0.00%     81.47% # Class of committed instruction
system.cpu00.commit.op_class_0::SimdCmp             0      0.00%     81.47% # Class of committed instruction
system.cpu00.commit.op_class_0::SimdCvt             0      0.00%     81.47% # Class of committed instruction
system.cpu00.commit.op_class_0::SimdMisc            0      0.00%     81.47% # Class of committed instruction
system.cpu00.commit.op_class_0::SimdMult            0      0.00%     81.47% # Class of committed instruction
system.cpu00.commit.op_class_0::SimdMultAcc            0      0.00%     81.47% # Class of committed instruction
system.cpu00.commit.op_class_0::SimdShift            0      0.00%     81.47% # Class of committed instruction
system.cpu00.commit.op_class_0::SimdShiftAcc            0      0.00%     81.47% # Class of committed instruction
system.cpu00.commit.op_class_0::SimdSqrt            0      0.00%     81.47% # Class of committed instruction
system.cpu00.commit.op_class_0::SimdFloatAdd            0      0.00%     81.47% # Class of committed instruction
system.cpu00.commit.op_class_0::SimdFloatAlu            0      0.00%     81.47% # Class of committed instruction
system.cpu00.commit.op_class_0::SimdFloatCmp            0      0.00%     81.47% # Class of committed instruction
system.cpu00.commit.op_class_0::SimdFloatCvt            0      0.00%     81.47% # Class of committed instruction
system.cpu00.commit.op_class_0::SimdFloatDiv            0      0.00%     81.47% # Class of committed instruction
system.cpu00.commit.op_class_0::SimdFloatMisc            0      0.00%     81.47% # Class of committed instruction
system.cpu00.commit.op_class_0::SimdFloatMult            0      0.00%     81.47% # Class of committed instruction
system.cpu00.commit.op_class_0::SimdFloatMultAcc            0      0.00%     81.47% # Class of committed instruction
system.cpu00.commit.op_class_0::SimdFloatSqrt            0      0.00%     81.47% # Class of committed instruction
system.cpu00.commit.op_class_0::MemRead        603963     13.71%     95.18% # Class of committed instruction
system.cpu00.commit.op_class_0::MemWrite       212129      4.82%    100.00% # Class of committed instruction
system.cpu00.commit.op_class_0::IprAccess            0      0.00%    100.00% # Class of committed instruction
system.cpu00.commit.op_class_0::InstPrefetch            0      0.00%    100.00% # Class of committed instruction
system.cpu00.commit.op_class_0::total         4404385                       # Class of committed instruction
system.cpu00.commit.bw_lim_events              117970                       # number cycles where commit BW limit reached
system.cpu00.rob.rob_reads                   13935084                       # The number of ROB reads
system.cpu00.rob.rob_writes                  12812085                       # The number of ROB writes
system.cpu00.timesIdled                          1469                       # Number of times that the entire CPU went into an idle state and unscheduled itself
system.cpu00.idleCycles                        212408                       # Total number of cycles that the CPU has spent unscheduled due to idling
system.cpu00.quiesceCycles                     286857                       # Total number of cycles that CPU has spent quiesced or waiting for an interrupt
system.cpu00.committedInsts                   4346036                       # Number of Instructions Simulated
system.cpu00.committedOps                     4346036                       # Number of Ops (including micro ops) Simulated
system.cpu00.cpi                             1.949303                       # CPI: Cycles Per Instruction
system.cpu00.cpi_total                       1.949303                       # CPI: Total CPI of All Threads
system.cpu00.ipc                             0.513004                       # IPC: Instructions Per Cycle
system.cpu00.ipc_total                       0.513004                       # IPC: Total IPC of All Threads
system.cpu00.int_regfile_reads                4556709                       # number of integer regfile reads
system.cpu00.int_regfile_writes               2268352                       # number of integer regfile writes
system.cpu00.fp_regfile_reads                 4016756                       # number of floating regfile reads
system.cpu00.fp_regfile_writes                2836036                       # number of floating regfile writes
system.cpu00.misc_regfile_reads                  3011                       # number of misc regfile reads
system.cpu00.misc_regfile_writes                 2493                       # number of misc regfile writes
system.cpu00.dcache.tags.replacements           69261                       # number of replacements
system.cpu00.dcache.tags.tagsinuse          63.788913                       # Cycle average of tags in use
system.cpu00.dcache.tags.total_refs           1137172                       # Total number of references to valid blocks.
system.cpu00.dcache.tags.sampled_refs           69325                       # Sample count of references to valid blocks.
system.cpu00.dcache.tags.avg_refs           16.403491                       # Average number of references to valid blocks.
system.cpu00.dcache.tags.warmup_cycle        85990626                       # Cycle when the warmup percentage was hit.
system.cpu00.dcache.tags.occ_blocks::cpu00.data    63.788913                       # Average occupied blocks per requestor
system.cpu00.dcache.tags.occ_percent::cpu00.data     0.996702                       # Average percentage of cache occupancy
system.cpu00.dcache.tags.occ_percent::total     0.996702                       # Average percentage of cache occupancy
system.cpu00.dcache.tags.occ_task_id_blocks::1024           64                       # Occupied blocks per task id
system.cpu00.dcache.tags.age_task_id_blocks_1024::0           47                       # Occupied blocks per task id
system.cpu00.dcache.tags.age_task_id_blocks_1024::1           16                       # Occupied blocks per task id
system.cpu00.dcache.tags.age_task_id_blocks_1024::2            1                       # Occupied blocks per task id
system.cpu00.dcache.tags.occ_task_id_percent::1024            1                       # Percentage of cache occupancy per task id
system.cpu00.dcache.tags.tag_accesses         2652433                       # Number of tag accesses
system.cpu00.dcache.tags.data_accesses        2652433                       # Number of data accesses
system.cpu00.dcache.ReadReq_hits::cpu00.data      1000409                       # number of ReadReq hits
system.cpu00.dcache.ReadReq_hits::total       1000409                       # number of ReadReq hits
system.cpu00.dcache.WriteReq_hits::cpu00.data       134469                       # number of WriteReq hits
system.cpu00.dcache.WriteReq_hits::total       134469                       # number of WriteReq hits
system.cpu00.dcache.LoadLockedReq_hits::cpu00.data          970                       # number of LoadLockedReq hits
system.cpu00.dcache.LoadLockedReq_hits::total          970                       # number of LoadLockedReq hits
system.cpu00.dcache.StoreCondReq_hits::cpu00.data         1232                       # number of StoreCondReq hits
system.cpu00.dcache.StoreCondReq_hits::total         1232                       # number of StoreCondReq hits
system.cpu00.dcache.demand_hits::cpu00.data      1134878                       # number of demand (read+write) hits
system.cpu00.dcache.demand_hits::total        1134878                       # number of demand (read+write) hits
system.cpu00.dcache.overall_hits::cpu00.data      1134878                       # number of overall hits
system.cpu00.dcache.overall_hits::total       1134878                       # number of overall hits
system.cpu00.dcache.ReadReq_misses::cpu00.data        77628                       # number of ReadReq misses
system.cpu00.dcache.ReadReq_misses::total        77628                       # number of ReadReq misses
system.cpu00.dcache.WriteReq_misses::cpu00.data        76414                       # number of WriteReq misses
system.cpu00.dcache.WriteReq_misses::total        76414                       # number of WriteReq misses
system.cpu00.dcache.LoadLockedReq_misses::cpu00.data          325                       # number of LoadLockedReq misses
system.cpu00.dcache.LoadLockedReq_misses::total          325                       # number of LoadLockedReq misses
system.cpu00.dcache.StoreCondReq_misses::cpu00.data           13                       # number of StoreCondReq misses
system.cpu00.dcache.StoreCondReq_misses::total           13                       # number of StoreCondReq misses
system.cpu00.dcache.demand_misses::cpu00.data       154042                       # number of demand (read+write) misses
system.cpu00.dcache.demand_misses::total       154042                       # number of demand (read+write) misses
system.cpu00.dcache.overall_misses::cpu00.data       154042                       # number of overall misses
system.cpu00.dcache.overall_misses::total       154042                       # number of overall misses
system.cpu00.dcache.ReadReq_miss_latency::cpu00.data   6881568597                       # number of ReadReq miss cycles
system.cpu00.dcache.ReadReq_miss_latency::total   6881568597                       # number of ReadReq miss cycles
system.cpu00.dcache.WriteReq_miss_latency::cpu00.data  10768975469                       # number of WriteReq miss cycles
system.cpu00.dcache.WriteReq_miss_latency::total  10768975469                       # number of WriteReq miss cycles
system.cpu00.dcache.LoadLockedReq_miss_latency::cpu00.data      3554982                       # number of LoadLockedReq miss cycles
system.cpu00.dcache.LoadLockedReq_miss_latency::total      3554982                       # number of LoadLockedReq miss cycles
system.cpu00.dcache.StoreCondReq_miss_latency::cpu00.data       104490                       # number of StoreCondReq miss cycles
system.cpu00.dcache.StoreCondReq_miss_latency::total       104490                       # number of StoreCondReq miss cycles
system.cpu00.dcache.demand_miss_latency::cpu00.data  17650544066                       # number of demand (read+write) miss cycles
system.cpu00.dcache.demand_miss_latency::total  17650544066                       # number of demand (read+write) miss cycles
system.cpu00.dcache.overall_miss_latency::cpu00.data  17650544066                       # number of overall miss cycles
system.cpu00.dcache.overall_miss_latency::total  17650544066                       # number of overall miss cycles
system.cpu00.dcache.ReadReq_accesses::cpu00.data      1078037                       # number of ReadReq accesses(hits+misses)
system.cpu00.dcache.ReadReq_accesses::total      1078037                       # number of ReadReq accesses(hits+misses)
system.cpu00.dcache.WriteReq_accesses::cpu00.data       210883                       # number of WriteReq accesses(hits+misses)
system.cpu00.dcache.WriteReq_accesses::total       210883                       # number of WriteReq accesses(hits+misses)
system.cpu00.dcache.LoadLockedReq_accesses::cpu00.data         1295                       # number of LoadLockedReq accesses(hits+misses)
system.cpu00.dcache.LoadLockedReq_accesses::total         1295                       # number of LoadLockedReq accesses(hits+misses)
system.cpu00.dcache.StoreCondReq_accesses::cpu00.data         1245                       # number of StoreCondReq accesses(hits+misses)
system.cpu00.dcache.StoreCondReq_accesses::total         1245                       # number of StoreCondReq accesses(hits+misses)
system.cpu00.dcache.demand_accesses::cpu00.data      1288920                       # number of demand (read+write) accesses
system.cpu00.dcache.demand_accesses::total      1288920                       # number of demand (read+write) accesses
system.cpu00.dcache.overall_accesses::cpu00.data      1288920                       # number of overall (read+write) accesses
system.cpu00.dcache.overall_accesses::total      1288920                       # number of overall (read+write) accesses
system.cpu00.dcache.ReadReq_miss_rate::cpu00.data     0.072009                       # miss rate for ReadReq accesses
system.cpu00.dcache.ReadReq_miss_rate::total     0.072009                       # miss rate for ReadReq accesses
system.cpu00.dcache.WriteReq_miss_rate::cpu00.data     0.362353                       # miss rate for WriteReq accesses
system.cpu00.dcache.WriteReq_miss_rate::total     0.362353                       # miss rate for WriteReq accesses
system.cpu00.dcache.LoadLockedReq_miss_rate::cpu00.data     0.250965                       # miss rate for LoadLockedReq accesses
system.cpu00.dcache.LoadLockedReq_miss_rate::total     0.250965                       # miss rate for LoadLockedReq accesses
system.cpu00.dcache.StoreCondReq_miss_rate::cpu00.data     0.010442                       # miss rate for StoreCondReq accesses
system.cpu00.dcache.StoreCondReq_miss_rate::total     0.010442                       # miss rate for StoreCondReq accesses
system.cpu00.dcache.demand_miss_rate::cpu00.data     0.119512                       # miss rate for demand accesses
system.cpu00.dcache.demand_miss_rate::total     0.119512                       # miss rate for demand accesses
system.cpu00.dcache.overall_miss_rate::cpu00.data     0.119512                       # miss rate for overall accesses
system.cpu00.dcache.overall_miss_rate::total     0.119512                       # miss rate for overall accesses
system.cpu00.dcache.ReadReq_avg_miss_latency::cpu00.data 88648.021294                       # average ReadReq miss latency
system.cpu00.dcache.ReadReq_avg_miss_latency::total 88648.021294                       # average ReadReq miss latency
system.cpu00.dcache.WriteReq_avg_miss_latency::cpu00.data 140929.351546                       # average WriteReq miss latency
system.cpu00.dcache.WriteReq_avg_miss_latency::total 140929.351546                       # average WriteReq miss latency
system.cpu00.dcache.LoadLockedReq_avg_miss_latency::cpu00.data 10938.406154                       # average LoadLockedReq miss latency
system.cpu00.dcache.LoadLockedReq_avg_miss_latency::total 10938.406154                       # average LoadLockedReq miss latency
system.cpu00.dcache.StoreCondReq_avg_miss_latency::cpu00.data  8037.692308                       # average StoreCondReq miss latency
system.cpu00.dcache.StoreCondReq_avg_miss_latency::total  8037.692308                       # average StoreCondReq miss latency
system.cpu00.dcache.demand_avg_miss_latency::cpu00.data 114582.672687                       # average overall miss latency
system.cpu00.dcache.demand_avg_miss_latency::total 114582.672687                       # average overall miss latency
system.cpu00.dcache.overall_avg_miss_latency::cpu00.data 114582.672687                       # average overall miss latency
system.cpu00.dcache.overall_avg_miss_latency::total 114582.672687                       # average overall miss latency
system.cpu00.dcache.blocked_cycles::no_mshrs       354586                       # number of cycles access was blocked
system.cpu00.dcache.blocked_cycles::no_targets          149                       # number of cycles access was blocked
system.cpu00.dcache.blocked::no_mshrs           11000                       # number of cycles access was blocked
system.cpu00.dcache.blocked::no_targets            15                       # number of cycles access was blocked
system.cpu00.dcache.avg_blocked_cycles::no_mshrs    32.235091                       # average number of cycles each access was blocked
system.cpu00.dcache.avg_blocked_cycles::no_targets     9.933333                       # average number of cycles each access was blocked
system.cpu00.dcache.fast_writes                     0                       # number of fast writes performed
system.cpu00.dcache.cache_copies                    0                       # number of cache copies performed
system.cpu00.dcache.writebacks::writebacks        61041                       # number of writebacks
system.cpu00.dcache.writebacks::total           61041                       # number of writebacks
system.cpu00.dcache.ReadReq_mshr_hits::cpu00.data        47406                       # number of ReadReq MSHR hits
system.cpu00.dcache.ReadReq_mshr_hits::total        47406                       # number of ReadReq MSHR hits
system.cpu00.dcache.WriteReq_mshr_hits::cpu00.data        37249                       # number of WriteReq MSHR hits
system.cpu00.dcache.WriteReq_mshr_hits::total        37249                       # number of WriteReq MSHR hits
system.cpu00.dcache.LoadLockedReq_mshr_hits::cpu00.data          140                       # number of LoadLockedReq MSHR hits
system.cpu00.dcache.LoadLockedReq_mshr_hits::total          140                       # number of LoadLockedReq MSHR hits
system.cpu00.dcache.demand_mshr_hits::cpu00.data        84655                       # number of demand (read+write) MSHR hits
system.cpu00.dcache.demand_mshr_hits::total        84655                       # number of demand (read+write) MSHR hits
system.cpu00.dcache.overall_mshr_hits::cpu00.data        84655                       # number of overall MSHR hits
system.cpu00.dcache.overall_mshr_hits::total        84655                       # number of overall MSHR hits
system.cpu00.dcache.ReadReq_mshr_misses::cpu00.data        30222                       # number of ReadReq MSHR misses
system.cpu00.dcache.ReadReq_mshr_misses::total        30222                       # number of ReadReq MSHR misses
system.cpu00.dcache.WriteReq_mshr_misses::cpu00.data        39165                       # number of WriteReq MSHR misses
system.cpu00.dcache.WriteReq_mshr_misses::total        39165                       # number of WriteReq MSHR misses
system.cpu00.dcache.LoadLockedReq_mshr_misses::cpu00.data          185                       # number of LoadLockedReq MSHR misses
system.cpu00.dcache.LoadLockedReq_mshr_misses::total          185                       # number of LoadLockedReq MSHR misses
system.cpu00.dcache.StoreCondReq_mshr_misses::cpu00.data           13                       # number of StoreCondReq MSHR misses
system.cpu00.dcache.StoreCondReq_mshr_misses::total           13                       # number of StoreCondReq MSHR misses
system.cpu00.dcache.demand_mshr_misses::cpu00.data        69387                       # number of demand (read+write) MSHR misses
system.cpu00.dcache.demand_mshr_misses::total        69387                       # number of demand (read+write) MSHR misses
system.cpu00.dcache.overall_mshr_misses::cpu00.data        69387                       # number of overall MSHR misses
system.cpu00.dcache.overall_mshr_misses::total        69387                       # number of overall MSHR misses
system.cpu00.dcache.ReadReq_mshr_miss_latency::cpu00.data   2571486129                       # number of ReadReq MSHR miss cycles
system.cpu00.dcache.ReadReq_mshr_miss_latency::total   2571486129                       # number of ReadReq MSHR miss cycles
system.cpu00.dcache.WriteReq_mshr_miss_latency::cpu00.data   4842044972                       # number of WriteReq MSHR miss cycles
system.cpu00.dcache.WriteReq_mshr_miss_latency::total   4842044972                       # number of WriteReq MSHR miss cycles
system.cpu00.dcache.LoadLockedReq_mshr_miss_latency::cpu00.data      1619595                       # number of LoadLockedReq MSHR miss cycles
system.cpu00.dcache.LoadLockedReq_mshr_miss_latency::total      1619595                       # number of LoadLockedReq MSHR miss cycles
system.cpu00.dcache.StoreCondReq_mshr_miss_latency::cpu00.data        89397                       # number of StoreCondReq MSHR miss cycles
system.cpu00.dcache.StoreCondReq_mshr_miss_latency::total        89397                       # number of StoreCondReq MSHR miss cycles
system.cpu00.dcache.demand_mshr_miss_latency::cpu00.data   7413531101                       # number of demand (read+write) MSHR miss cycles
system.cpu00.dcache.demand_mshr_miss_latency::total   7413531101                       # number of demand (read+write) MSHR miss cycles
system.cpu00.dcache.overall_mshr_miss_latency::cpu00.data   7413531101                       # number of overall MSHR miss cycles
system.cpu00.dcache.overall_mshr_miss_latency::total   7413531101                       # number of overall MSHR miss cycles
system.cpu00.dcache.ReadReq_mshr_miss_rate::cpu00.data     0.028034                       # mshr miss rate for ReadReq accesses
system.cpu00.dcache.ReadReq_mshr_miss_rate::total     0.028034                       # mshr miss rate for ReadReq accesses
system.cpu00.dcache.WriteReq_mshr_miss_rate::cpu00.data     0.185719                       # mshr miss rate for WriteReq accesses
system.cpu00.dcache.WriteReq_mshr_miss_rate::total     0.185719                       # mshr miss rate for WriteReq accesses
system.cpu00.dcache.LoadLockedReq_mshr_miss_rate::cpu00.data     0.142857                       # mshr miss rate for LoadLockedReq accesses
system.cpu00.dcache.LoadLockedReq_mshr_miss_rate::total     0.142857                       # mshr miss rate for LoadLockedReq accesses
system.cpu00.dcache.StoreCondReq_mshr_miss_rate::cpu00.data     0.010442                       # mshr miss rate for StoreCondReq accesses
system.cpu00.dcache.StoreCondReq_mshr_miss_rate::total     0.010442                       # mshr miss rate for StoreCondReq accesses
system.cpu00.dcache.demand_mshr_miss_rate::cpu00.data     0.053833                       # mshr miss rate for demand accesses
system.cpu00.dcache.demand_mshr_miss_rate::total     0.053833                       # mshr miss rate for demand accesses
system.cpu00.dcache.overall_mshr_miss_rate::cpu00.data     0.053833                       # mshr miss rate for overall accesses
system.cpu00.dcache.overall_mshr_miss_rate::total     0.053833                       # mshr miss rate for overall accesses
system.cpu00.dcache.ReadReq_avg_mshr_miss_latency::cpu00.data 85086.563728                       # average ReadReq mshr miss latency
system.cpu00.dcache.ReadReq_avg_mshr_miss_latency::total 85086.563728                       # average ReadReq mshr miss latency
system.cpu00.dcache.WriteReq_avg_mshr_miss_latency::cpu00.data 123631.941070                       # average WriteReq mshr miss latency
system.cpu00.dcache.WriteReq_avg_mshr_miss_latency::total 123631.941070                       # average WriteReq mshr miss latency
system.cpu00.dcache.LoadLockedReq_avg_mshr_miss_latency::cpu00.data  8754.567568                       # average LoadLockedReq mshr miss latency
system.cpu00.dcache.LoadLockedReq_avg_mshr_miss_latency::total  8754.567568                       # average LoadLockedReq mshr miss latency
system.cpu00.dcache.StoreCondReq_avg_mshr_miss_latency::cpu00.data  6876.692308                       # average StoreCondReq mshr miss latency
system.cpu00.dcache.StoreCondReq_avg_mshr_miss_latency::total  6876.692308                       # average StoreCondReq mshr miss latency
system.cpu00.dcache.demand_avg_mshr_miss_latency::cpu00.data 106843.228573                       # average overall mshr miss latency
system.cpu00.dcache.demand_avg_mshr_miss_latency::total 106843.228573                       # average overall mshr miss latency
system.cpu00.dcache.overall_avg_mshr_miss_latency::cpu00.data 106843.228573                       # average overall mshr miss latency
system.cpu00.dcache.overall_avg_mshr_miss_latency::total 106843.228573                       # average overall mshr miss latency
system.cpu00.dcache.no_allocate_misses              0                       # Number of misses that were no-allocate
system.cpu00.icache.tags.replacements            7171                       # number of replacements
system.cpu00.icache.tags.tagsinuse         507.041635                       # Cycle average of tags in use
[...]
system.tol2bus.pkt_count_system.cpu06.dcache.mem_side::system.l2.cpu_side       163580                       # Packet count per connected master and slave (bytes)
system.tol2bus.pkt_count_system.cpu07.icache.mem_side::system.l2.cpu_side         1006                       # Packet count per connected master and slave (bytes)
system.tol2bus.pkt_count_system.cpu07.dcache.mem_side::system.l2.cpu_side       157728                       # Packet count per connected master and slave (bytes)
system.tol2bus.pkt_count_system.cpu08.icache.mem_side::system.l2.cpu_side          850                       # Packet count per connected master and slave (bytes)
system.tol2bus.pkt_count_system.cpu08.dcache.mem_side::system.l2.cpu_side       186625                       # Packet count per connected master and slave (bytes)
system.tol2bus.pkt_count_system.cpu09.icache.mem_side::system.l2.cpu_side         1001                       # Packet count per connected master and slave (bytes)
system.tol2bus.pkt_count_system.cpu09.dcache.mem_side::system.l2.cpu_side       157524                       # Packet count per connected master and slave (bytes)
system.tol2bus.pkt_count_system.cpu10.icache.mem_side::system.l2.cpu_side          853                       # Packet count per connected master and slave (bytes)
system.tol2bus.pkt_count_system.cpu10.dcache.mem_side::system.l2.cpu_side       162180                       # Packet count per connected master and slave (bytes)
system.tol2bus.pkt_count_system.cpu11.icache.mem_side::system.l2.cpu_side         1004                       # Packet count per connected master and slave (bytes)
system.tol2bus.pkt_count_system.cpu11.dcache.mem_side::system.l2.cpu_side       156957                       # Packet count per connected master and slave (bytes)
system.tol2bus.pkt_count_system.cpu12.icache.mem_side::system.l2.cpu_side         1096                       # Packet count per connected master and slave (bytes)
system.tol2bus.pkt_count_system.cpu12.dcache.mem_side::system.l2.cpu_side       175065                       # Packet count per connected master and slave (bytes)
system.tol2bus.pkt_count_system.cpu13.icache.mem_side::system.l2.cpu_side          851                       # Packet count per connected master and slave (bytes)
system.tol2bus.pkt_count_system.cpu13.dcache.mem_side::system.l2.cpu_side       156928                       # Packet count per connected master and slave (bytes)
system.tol2bus.pkt_count_system.cpu14.icache.mem_side::system.l2.cpu_side         1014                       # Packet count per connected master and slave (bytes)
system.tol2bus.pkt_count_system.cpu14.dcache.mem_side::system.l2.cpu_side       165095                       # Packet count per connected master and slave (bytes)
system.tol2bus.pkt_count_system.cpu15.icache.mem_side::system.l2.cpu_side         1007                       # Packet count per connected master and slave (bytes)
system.tol2bus.pkt_count_system.cpu15.dcache.mem_side::system.l2.cpu_side       163413                       # Packet count per connected master and slave (bytes)
system.tol2bus.pkt_count::total               2693907                       # Packet count per connected master and slave (bytes)
system.tol2bus.pkt_size_system.cpu00.icache.mem_side::system.l2.cpu_side       950656                       # Cumulative packet size per connected master and slave (bytes)
system.tol2bus.pkt_size_system.cpu00.dcache.mem_side::system.l2.cpu_side      8324928                       # Cumulative packet size per connected master and slave (bytes)
system.tol2bus.pkt_size_system.cpu01.icache.mem_side::system.l2.cpu_side        37312                       # Cumulative packet size per connected master and slave (bytes)
system.tol2bus.pkt_size_system.cpu01.dcache.mem_side::system.l2.cpu_side      6376896                       # Cumulative packet size per connected master and slave (bytes)
system.tol2bus.pkt_size_system.cpu02.icache.mem_side::system.l2.cpu_side        29888                       # Cumulative packet size per connected master and slave (bytes)
system.tol2bus.pkt_size_system.cpu02.dcache.mem_side::system.l2.cpu_side      6615232                       # Cumulative packet size per connected master and slave (bytes)
system.tol2bus.pkt_size_system.cpu03.icache.mem_side::system.l2.cpu_side        34816                       # Cumulative packet size per connected master and slave (bytes)
system.tol2bus.pkt_size_system.cpu03.dcache.mem_side::system.l2.cpu_side      6386176                       # Cumulative packet size per connected master and slave (bytes)
system.tol2bus.pkt_size_system.cpu04.icache.mem_side::system.l2.cpu_side        28736                       # Cumulative packet size per connected master and slave (bytes)
system.tol2bus.pkt_size_system.cpu04.dcache.mem_side::system.l2.cpu_side      7123328                       # Cumulative packet size per connected master and slave (bytes)
system.tol2bus.pkt_size_system.cpu05.icache.mem_side::system.l2.cpu_side        34816                       # Cumulative packet size per connected master and slave (bytes)
system.tol2bus.pkt_size_system.cpu05.dcache.mem_side::system.l2.cpu_side      6392704                       # Cumulative packet size per connected master and slave (bytes)
system.tol2bus.pkt_size_system.cpu06.icache.mem_side::system.l2.cpu_side        28736                       # Cumulative packet size per connected master and slave (bytes)
system.tol2bus.pkt_size_system.cpu06.dcache.mem_side::system.l2.cpu_side      6673216                       # Cumulative packet size per connected master and slave (bytes)
system.tol2bus.pkt_size_system.cpu07.icache.mem_side::system.l2.cpu_side        34944                       # Cumulative packet size per connected master and slave (bytes)
system.tol2bus.pkt_size_system.cpu07.dcache.mem_side::system.l2.cpu_side      6448128                       # Cumulative packet size per connected master and slave (bytes)
system.tol2bus.pkt_size_system.cpu08.icache.mem_side::system.l2.cpu_side        28672                       # Cumulative packet size per connected master and slave (bytes)
system.tol2bus.pkt_size_system.cpu08.dcache.mem_side::system.l2.cpu_side      7648704                       # Cumulative packet size per connected master and slave (bytes)
system.tol2bus.pkt_size_system.cpu09.icache.mem_side::system.l2.cpu_side        34752                       # Cumulative packet size per connected master and slave (bytes)
system.tol2bus.pkt_size_system.cpu09.dcache.mem_side::system.l2.cpu_side      6502912                       # Cumulative packet size per connected master and slave (bytes)
system.tol2bus.pkt_size_system.cpu10.icache.mem_side::system.l2.cpu_side        28800                       # Cumulative packet size per connected master and slave (bytes)
system.tol2bus.pkt_size_system.cpu10.dcache.mem_side::system.l2.cpu_side      6619072                       # Cumulative packet size per connected master and slave (bytes)
system.tol2bus.pkt_size_system.cpu11.icache.mem_side::system.l2.cpu_side        34880                       # Cumulative packet size per connected master and slave (bytes)
system.tol2bus.pkt_size_system.cpu11.dcache.mem_side::system.l2.cpu_side      6474432                       # Cumulative packet size per connected master and slave (bytes)
system.tol2bus.pkt_size_system.cpu12.icache.mem_side::system.l2.cpu_side        38464                       # Cumulative packet size per connected master and slave (bytes)
system.tol2bus.pkt_size_system.cpu12.dcache.mem_side::system.l2.cpu_side      7217344                       # Cumulative packet size per connected master and slave (bytes)
system.tol2bus.pkt_size_system.cpu13.icache.mem_side::system.l2.cpu_side        28736                       # Cumulative packet size per connected master and slave (bytes)
system.tol2bus.pkt_size_system.cpu13.dcache.mem_side::system.l2.cpu_side      6478720                       # Cumulative packet size per connected master and slave (bytes)
system.tol2bus.pkt_size_system.cpu14.icache.mem_side::system.l2.cpu_side        35200                       # Cumulative packet size per connected master and slave (bytes)
system.tol2bus.pkt_size_system.cpu14.dcache.mem_side::system.l2.cpu_side      6777088                       # Cumulative packet size per connected master and slave (bytes)
system.tol2bus.pkt_size_system.cpu15.icache.mem_side::system.l2.cpu_side        34944                       # Cumulative packet size per connected master and slave (bytes)
system.tol2bus.pkt_size_system.cpu15.dcache.mem_side::system.l2.cpu_side      6761088                       # Cumulative packet size per connected master and slave (bytes)
system.tol2bus.pkt_size::total              110264320                       # Cumulative packet size per connected master and slave (bytes)
system.tol2bus.snoops                          145530                       # Total snoops (count)
system.tol2bus.snoop_fanout::samples          1046232                       # Request fanout histogram
system.tol2bus.snoop_fanout::mean            0.077180                       # Request fanout histogram
system.tol2bus.snoop_fanout::stdev           0.842490                       # Request fanout histogram
system.tol2bus.snoop_fanout::underflows             0      0.00%      0.00% # Request fanout histogram
system.tol2bus.snoop_fanout::0                1029558     98.41%     98.41% # Request fanout histogram
system.tol2bus.snoop_fanout::1                   6607      0.63%     99.04% # Request fanout histogram
system.tol2bus.snoop_fanout::2                   1649      0.16%     99.20% # Request fanout histogram
system.tol2bus.snoop_fanout::3                   1080      0.10%     99.30% # Request fanout histogram
system.tol2bus.snoop_fanout::4                    833      0.08%     99.38% # Request fanout histogram
system.tol2bus.snoop_fanout::5                    801      0.08%     99.45% # Request fanout histogram
system.tol2bus.snoop_fanout::6                    681      0.07%     99.52% # Request fanout histogram
system.tol2bus.snoop_fanout::7                    589      0.06%     99.58% # Request fanout histogram
system.tol2bus.snoop_fanout::8                    579      0.06%     99.63% # Request fanout histogram
system.tol2bus.snoop_fanout::9                    545      0.05%     99.68% # Request fanout histogram
system.tol2bus.snoop_fanout::10                   495      0.05%     99.73% # Request fanout histogram
system.tol2bus.snoop_fanout::11                   496      0.05%     99.78% # Request fanout histogram
system.tol2bus.snoop_fanout::12                   477      0.05%     99.82% # Request fanout histogram
system.tol2bus.snoop_fanout::13                   468      0.04%     99.87% # Request fanout histogram
system.tol2bus.snoop_fanout::14                   480      0.05%     99.91% # Request fanout histogram
system.tol2bus.snoop_fanout::15                   718      0.07%     99.98% # Request fanout histogram
system.tol2bus.snoop_fanout::16                   176      0.02%    100.00% # Request fanout histogram
system.tol2bus.snoop_fanout::17                     0      0.00%    100.00% # Request fanout histogram
system.tol2bus.snoop_fanout::18                     0      0.00%    100.00% # Request fanout histogram
system.tol2bus.snoop_fanout::19                     0      0.00%    100.00% # Request fanout histogram
system.tol2bus.snoop_fanout::20                     0      0.00%    100.00% # Request fanout histogram
system.tol2bus.snoop_fanout::21                     0      0.00%    100.00% # Request fanout histogram
system.tol2bus.snoop_fanout::22                     0      0.00%    100.00% # Request fanout histogram
system.tol2bus.snoop_fanout::23                     0      0.00%    100.00% # Request fanout histogram
system.tol2bus.snoop_fanout::24                     0      0.00%    100.00% # Request fanout histogram
system.tol2bus.snoop_fanout::25                     0      0.00%    100.00% # Request fanout histogram
system.tol2bus.snoop_fanout::26                     0      0.00%    100.00% # Request fanout histogram
system.tol2bus.snoop_fanout::27                     0      0.00%    100.00% # Request fanout histogram
system.tol2bus.snoop_fanout::28                     0      0.00%    100.00% # Request fanout histogram
system.tol2bus.snoop_fanout::29                     0      0.00%    100.00% # Request fanout histogram
system.tol2bus.snoop_fanout::30                     0      0.00%    100.00% # Request fanout histogram
system.tol2bus.snoop_fanout::31                     0      0.00%    100.00% # Request fanout histogram
system.tol2bus.snoop_fanout::32                     0      0.00%    100.00% # Request fanout histogram
system.tol2bus.snoop_fanout::overflows              0      0.00%    100.00% # Request fanout histogram
system.tol2bus.snoop_fanout::min_value              0                       # Request fanout histogram
system.tol2bus.snoop_fanout::max_value             16                       # Request fanout histogram
system.tol2bus.snoop_fanout::total            1046232                       # Request fanout histogram
system.tol2bus.reqLayer0.occupancy         4015879848                       # Layer occupancy (ticks)
system.tol2bus.reqLayer0.utilization             39.5                       # Layer utilization (%)
system.tol2bus.respLayer0.occupancy          27122922                       # Layer occupancy (ticks)
system.tol2bus.respLayer0.utilization             0.3                       # Layer utilization (%)
system.tol2bus.respLayer1.occupancy         244299871                       # Layer occupancy (ticks)
system.tol2bus.respLayer1.utilization             2.4                       # Layer utilization (%)
system.tol2bus.respLayer2.occupancy           1706234                       # Layer occupancy (ticks)
system.tol2bus.respLayer2.utilization             0.0                       # Layer utilization (%)
system.tol2bus.respLayer3.occupancy         183282871                       # Layer occupancy (ticks)
system.tol2bus.respLayer3.utilization             1.8                       # Layer utilization (%)
system.tol2bus.respLayer4.occupancy           1476144                       # Layer occupancy (ticks)
system.tol2bus.respLayer4.utilization             0.0                       # Layer utilization (%)
system.tol2bus.respLayer5.occupancy         190475613                       # Layer occupancy (ticks)
system.tol2bus.respLayer5.utilization             1.9                       # Layer utilization (%)
system.tol2bus.respLayer6.occupancy           1614898                       # Layer occupancy (ticks)
system.tol2bus.respLayer6.utilization             0.0                       # Layer utilization (%)
system.tol2bus.respLayer7.occupancy         183592876                       # Layer occupancy (ticks)
system.tol2bus.respLayer7.utilization             1.8                       # Layer utilization (%)
system.tol2bus.respLayer8.occupancy           1424564                       # Layer occupancy (ticks)
system.tol2bus.respLayer8.utilization             0.0                       # Layer utilization (%)
system.tol2bus.respLayer9.occupancy         204933866                       # Layer occupancy (ticks)
system.tol2bus.respLayer9.utilization             2.0                       # Layer utilization (%)
system.tol2bus.respLayer10.occupancy          1630401                       # Layer occupancy (ticks)
system.tol2bus.respLayer10.utilization            0.0                       # Layer utilization (%)
system.tol2bus.respLayer11.occupancy        183839247                       # Layer occupancy (ticks)
system.tol2bus.respLayer11.utilization            1.8                       # Layer utilization (%)
system.tol2bus.respLayer12.occupancy          1426770                       # Layer occupancy (ticks)
system.tol2bus.respLayer12.utilization            0.0                       # Layer utilization (%)
system.tol2bus.respLayer13.occupancy        192683221                       # Layer occupancy (ticks)
system.tol2bus.respLayer13.utilization            1.9                       # Layer utilization (%)
system.tol2bus.respLayer14.occupancy          1624147                       # Layer occupancy (ticks)
system.tol2bus.respLayer14.utilization            0.0                       # Layer utilization (%)
system.tol2bus.respLayer15.occupancy        185616159                       # Layer occupancy (ticks)
system.tol2bus.respLayer15.utilization            1.8                       # Layer utilization (%)
system.tol2bus.respLayer16.occupancy          1424471                       # Layer occupancy (ticks)
system.tol2bus.respLayer16.utilization            0.0                       # Layer utilization (%)
system.tol2bus.respLayer17.occupancy        219530398                       # Layer occupancy (ticks)
system.tol2bus.respLayer17.utilization            2.2                       # Layer utilization (%)
system.tol2bus.respLayer18.occupancy          1618354                       # Layer occupancy (ticks)
system.tol2bus.respLayer18.utilization            0.0                       # Layer utilization (%)
system.tol2bus.respLayer19.occupancy        185059643                       # Layer occupancy (ticks)
system.tol2bus.respLayer19.utilization            1.8                       # Layer utilization (%)
system.tol2bus.respLayer20.occupancy          1436019                       # Layer occupancy (ticks)
system.tol2bus.respLayer20.utilization            0.0                       # Layer utilization (%)
system.tol2bus.respLayer21.occupancy        191020540                       # Layer occupancy (ticks)
system.tol2bus.respLayer21.utilization            1.9                       # Layer utilization (%)
system.tol2bus.respLayer22.occupancy          1619509                       # Layer occupancy (ticks)
system.tol2bus.respLayer22.utilization            0.0                       # Layer utilization (%)
system.tol2bus.respLayer23.occupancy        184506463                       # Layer occupancy (ticks)
system.tol2bus.respLayer23.utilization            1.8                       # Layer utilization (%)
system.tol2bus.respLayer24.occupancy          1750000                       # Layer occupancy (ticks)
system.tol2bus.respLayer24.utilization            0.0                       # Layer utilization (%)
system.tol2bus.respLayer25.occupancy        205973024                       # Layer occupancy (ticks)
system.tol2bus.respLayer25.utilization            2.0                       # Layer utilization (%)
system.tol2bus.respLayer26.occupancy          1420998                       # Layer occupancy (ticks)
system.tol2bus.respLayer26.utilization            0.0                       # Layer utilization (%)
system.tol2bus.respLayer27.occupancy        184455891                       # Layer occupancy (ticks)
system.tol2bus.respLayer27.utilization            1.8                       # Layer utilization (%)
system.tol2bus.respLayer28.occupancy          1636937                       # Layer occupancy (ticks)
system.tol2bus.respLayer28.utilization            0.0                       # Layer utilization (%)
system.tol2bus.respLayer29.occupancy        194383091                       # Layer occupancy (ticks)
system.tol2bus.respLayer29.utilization            1.9                       # Layer utilization (%)
system.tol2bus.respLayer30.occupancy          1631132                       # Layer occupancy (ticks)
system.tol2bus.respLayer30.utilization            0.0                       # Layer utilization (%)
system.tol2bus.respLayer31.occupancy        192030082                       # Layer occupancy (ticks)
system.tol2bus.respLayer31.utilization            1.9                       # Layer utilization (%)

---------- End Simulation Statistics   ----------
