
---------- Begin Simulation Statistics ----------
sim_seconds                                  0.001289                       # Number of seconds simulated
sim_ticks                                  1288527723                       # Number of ticks simulated
final_tick                                 1288527723                       # Number of ticks from beginning of simulation (restored from checkpoints and never reset)
sim_freq                                 1000000000000                       # Frequency of simulated ticks
host_inst_rate                                 224984                       # Simulator instruction rate (inst/s)
host_op_rate                                   224984                       # Simulator op (including micro ops) rate (op/s)
host_tick_rate                              130976580                       # Simulator tick rate (ticks/s)
host_mem_usage                                 694780                       # Number of bytes of host memory used
host_seconds                                     9.84                       # Real time elapsed on the host
sim_insts                                     2213354                       # Number of instructions simulated
sim_ops                                       2213354                       # Number of ops (including micro ops) simulated
system.voltage_domain.voltage                       1                       # Voltage in Volts
system.clk_domain.clock                          1000                       # Clock period in ticks
system.mem_ctrls.bytes_read::cpu00.inst        123648                       # Number of bytes read from this memory
system.mem_ctrls.bytes_read::cpu00.data        378496                       # Number of bytes read from this memory
system.mem_ctrls.bytes_read::cpu01.inst         12992                       # Number of bytes read from this memory
system.mem_ctrls.bytes_read::cpu01.data          6784                       # Number of bytes read from this memory
system.mem_ctrls.bytes_read::cpu02.inst          1472                       # Number of bytes read from this memory
system.mem_ctrls.bytes_read::cpu02.data          6400                       # Number of bytes read from this memory
system.mem_ctrls.bytes_read::cpu03.inst           640                       # Number of bytes read from this memory
system.mem_ctrls.bytes_read::cpu03.data          6912                       # Number of bytes read from this memory
system.mem_ctrls.bytes_read::cpu04.inst           832                       # Number of bytes read from this memory
system.mem_ctrls.bytes_read::cpu04.data          5760                       # Number of bytes read from this memory
system.mem_ctrls.bytes_read::cpu05.inst          3584                       # Number of bytes read from this memory
system.mem_ctrls.bytes_read::cpu05.data          6400                       # Number of bytes read from this memory
system.mem_ctrls.bytes_read::cpu06.inst          4224                       # Number of bytes read from this memory
system.mem_ctrls.bytes_read::cpu06.data          6848                       # Number of bytes read from this memory
system.mem_ctrls.bytes_read::cpu07.inst           384                       # Number of bytes read from this memory
system.mem_ctrls.bytes_read::cpu07.data          6720                       # Number of bytes read from this memory
system.mem_ctrls.bytes_read::cpu08.inst          1216                       # Number of bytes read from this memory
system.mem_ctrls.bytes_read::cpu08.data          5568                       # Number of bytes read from this memory
system.mem_ctrls.bytes_read::cpu09.inst           256                       # Number of bytes read from this memory
system.mem_ctrls.bytes_read::cpu09.data          4608                       # Number of bytes read from this memory
system.mem_ctrls.bytes_read::cpu10.inst           768                       # Number of bytes read from this memory
system.mem_ctrls.bytes_read::cpu10.data          4480                       # Number of bytes read from this memory
system.mem_ctrls.bytes_read::cpu11.inst           512                       # Number of bytes read from this memory
system.mem_ctrls.bytes_read::cpu11.data          4928                       # Number of bytes read from this memory
system.mem_ctrls.bytes_read::cpu12.inst           576                       # Number of bytes read from this memory
system.mem_ctrls.bytes_read::cpu12.data          6336                       # Number of bytes read from this memory
system.mem_ctrls.bytes_read::cpu13.inst           512                       # Number of bytes read from this memory
system.mem_ctrls.bytes_read::cpu13.data          6208                       # Number of bytes read from this memory
system.mem_ctrls.bytes_read::cpu14.inst           192                       # Number of bytes read from this memory
system.mem_ctrls.bytes_read::cpu14.data          5568                       # Number of bytes read from this memory
system.mem_ctrls.bytes_read::cpu15.inst          1152                       # Number of bytes read from this memory
system.mem_ctrls.bytes_read::cpu15.data          5568                       # Number of bytes read from this memory
system.mem_ctrls.bytes_read::total             620544                       # Number of bytes read from this memory
system.mem_ctrls.bytes_inst_read::cpu00.inst       123648                       # Number of instructions bytes read from this memory
system.mem_ctrls.bytes_inst_read::cpu01.inst        12992                       # Number of instructions bytes read from this memory
system.mem_ctrls.bytes_inst_read::cpu02.inst         1472                       # Number of instructions bytes read from this memory
system.mem_ctrls.bytes_inst_read::cpu03.inst          640                       # Number of instructions bytes read from this memory
system.mem_ctrls.bytes_inst_read::cpu04.inst          832                       # Number of instructions bytes read from this memory
system.mem_ctrls.bytes_inst_read::cpu05.inst         3584                       # Number of instructions bytes read from this memory
system.mem_ctrls.bytes_inst_read::cpu06.inst         4224                       # Number of instructions bytes read from this memory
system.mem_ctrls.bytes_inst_read::cpu07.inst          384                       # Number of instructions bytes read from this memory
system.mem_ctrls.bytes_inst_read::cpu08.inst         1216                       # Number of instructions bytes read from this memory
system.mem_ctrls.bytes_inst_read::cpu09.inst          256                       # Number of instructions bytes read from this memory
system.mem_ctrls.bytes_inst_read::cpu10.inst          768                       # Number of instructions bytes read from this memory
system.mem_ctrls.bytes_inst_read::cpu11.inst          512                       # Number of instructions bytes read from this memory
system.mem_ctrls.bytes_inst_read::cpu12.inst          576                       # Number of instructions bytes read from this memory
system.mem_ctrls.bytes_inst_read::cpu13.inst          512                       # Number of instructions bytes read from this memory
system.mem_ctrls.bytes_inst_read::cpu14.inst          192                       # Number of instructions bytes read from this memory
system.mem_ctrls.bytes_inst_read::cpu15.inst         1152                       # Number of instructions bytes read from this memory
system.mem_ctrls.bytes_inst_read::total        152960                       # Number of instructions bytes read from this memory
system.mem_ctrls.bytes_written::writebacks        79808                       # Number of bytes written to this memory
system.mem_ctrls.bytes_written::total           79808                       # Number of bytes written to this memory
system.mem_ctrls.num_reads::cpu00.inst           1932                       # Number of read requests responded to by this memory
system.mem_ctrls.num_reads::cpu00.data           5914                       # Number of read requests responded to by this memory
system.mem_ctrls.num_reads::cpu01.inst            203                       # Number of read requests responded to by this memory
system.mem_ctrls.num_reads::cpu01.data            106                       # Number of read requests responded to by this memory
system.mem_ctrls.num_reads::cpu02.inst             23                       # Number of read requests responded to by this memory
system.mem_ctrls.num_reads::cpu02.data            100                       # Number of read requests responded to by this memory
system.mem_ctrls.num_reads::cpu03.inst             10                       # Number of read requests responded to by this memory
system.mem_ctrls.num_reads::cpu03.data            108                       # Number of read requests responded to by this memory
system.mem_ctrls.num_reads::cpu04.inst             13                       # Number of read requests responded to by this memory
system.mem_ctrls.num_reads::cpu04.data             90                       # Number of read requests responded to by this memory
system.mem_ctrls.num_reads::cpu05.inst             56                       # Number of read requests responded to by this memory
system.mem_ctrls.num_reads::cpu05.data            100                       # Number of read requests responded to by this memory
system.mem_ctrls.num_reads::cpu06.inst             66                       # Number of read requests responded to by this memory
system.mem_ctrls.num_reads::cpu06.data            107                       # Number of read requests responded to by this memory
system.mem_ctrls.num_reads::cpu07.inst              6                       # Number of read requests responded to by this memory
system.mem_ctrls.num_reads::cpu07.data            105                       # Number of read requests responded to by this memory
system.mem_ctrls.num_reads::cpu08.inst             19                       # Number of read requests responded to by this memory
system.mem_ctrls.num_reads::cpu08.data             87                       # Number of read requests responded to by this memory
system.mem_ctrls.num_reads::cpu09.inst              4                       # Number of read requests responded to by this memory
system.mem_ctrls.num_reads::cpu09.data             72                       # Number of read requests responded to by this memory
system.mem_ctrls.num_reads::cpu10.inst             12                       # Number of read requests responded to by this memory
system.mem_ctrls.num_reads::cpu10.data             70                       # Number of read requests responded to by this memory
system.mem_ctrls.num_reads::cpu11.inst              8                       # Number of read requests responded to by this memory
system.mem_ctrls.num_reads::cpu11.data             77                       # Number of read requests responded to by this memory
system.mem_ctrls.num_reads::cpu12.inst              9                       # Number of read requests responded to by this memory
system.mem_ctrls.num_reads::cpu12.data             99                       # Number of read requests responded to by this memory
system.mem_ctrls.num_reads::cpu13.inst              8                       # Number of read requests responded to by this memory
system.mem_ctrls.num_reads::cpu13.data             97                       # Number of read requests responded to by this memory
system.mem_ctrls.num_reads::cpu14.inst              3                       # Number of read requests responded to by this memory
system.mem_ctrls.num_reads::cpu14.data             87                       # Number of read requests responded to by this memory
system.mem_ctrls.num_reads::cpu15.inst             18                       # Number of read requests responded to by this memory
system.mem_ctrls.num_reads::cpu15.data             87                       # Number of read requests responded to by this memory
system.mem_ctrls.num_reads::total                9696                       # Number of read requests responded to by this memory
system.mem_ctrls.num_writes::writebacks          1247                       # Number of write requests responded to by this memory
system.mem_ctrls.num_writes::total               1247                       # Number of write requests responded to by this memory
system.mem_ctrls.bw_read::cpu00.inst         95960683                       # Total read bandwidth from this memory (bytes/s)
system.mem_ctrls.bw_read::cpu00.data        293743001                       # Total read bandwidth from this memory (bytes/s)
system.mem_ctrls.bw_read::cpu01.inst         10082825                       # Total read bandwidth from this memory (bytes/s)
system.mem_ctrls.bw_read::cpu01.data          5264924                       # Total read bandwidth from this memory (bytes/s)
system.mem_ctrls.bw_read::cpu02.inst          1142389                       # Total read bandwidth from this memory (bytes/s)
system.mem_ctrls.bw_read::cpu02.data          4966909                       # Total read bandwidth from this memory (bytes/s)
system.mem_ctrls.bw_read::cpu03.inst           496691                       # Total read bandwidth from this memory (bytes/s)
system.mem_ctrls.bw_read::cpu03.data          5364262                       # Total read bandwidth from this memory (bytes/s)
system.mem_ctrls.bw_read::cpu04.inst           645698                       # Total read bandwidth from this memory (bytes/s)
system.mem_ctrls.bw_read::cpu04.data          4470218                       # Total read bandwidth from this memory (bytes/s)
system.mem_ctrls.bw_read::cpu05.inst          2781469                       # Total read bandwidth from this memory (bytes/s)
system.mem_ctrls.bw_read::cpu05.data          4966909                       # Total read bandwidth from this memory (bytes/s)
system.mem_ctrls.bw_read::cpu06.inst          3278160                       # Total read bandwidth from this memory (bytes/s)
system.mem_ctrls.bw_read::cpu06.data          5314593                       # Total read bandwidth from this memory (bytes/s)
system.mem_ctrls.bw_read::cpu07.inst           298015                       # Total read bandwidth from this memory (bytes/s)
system.mem_ctrls.bw_read::cpu07.data          5215254                       # Total read bandwidth from this memory (bytes/s)
system.mem_ctrls.bw_read::cpu08.inst           943713                       # Total read bandwidth from this memory (bytes/s)
system.mem_ctrls.bw_read::cpu08.data          4321211                       # Total read bandwidth from this memory (bytes/s)
system.mem_ctrls.bw_read::cpu09.inst           198676                       # Total read bandwidth from this memory (bytes/s)
system.mem_ctrls.bw_read::cpu09.data          3576175                       # Total read bandwidth from this memory (bytes/s)
system.mem_ctrls.bw_read::cpu10.inst           596029                       # Total read bandwidth from this memory (bytes/s)
system.mem_ctrls.bw_read::cpu10.data          3476836                       # Total read bandwidth from this memory (bytes/s)
system.mem_ctrls.bw_read::cpu11.inst           397353                       # Total read bandwidth from this memory (bytes/s)
system.mem_ctrls.bw_read::cpu11.data          3824520                       # Total read bandwidth from this memory (bytes/s)
system.mem_ctrls.bw_read::cpu12.inst           447022                       # Total read bandwidth from this memory (bytes/s)
system.mem_ctrls.bw_read::cpu12.data          4917240                       # Total read bandwidth from this memory (bytes/s)
system.mem_ctrls.bw_read::cpu13.inst           397353                       # Total read bandwidth from this memory (bytes/s)
system.mem_ctrls.bw_read::cpu13.data          4817902                       # Total read bandwidth from this memory (bytes/s)
system.mem_ctrls.bw_read::cpu14.inst           149007                       # Total read bandwidth from this memory (bytes/s)
system.mem_ctrls.bw_read::cpu14.data          4321211                       # Total read bandwidth from this memory (bytes/s)
system.mem_ctrls.bw_read::cpu15.inst           894044                       # Total read bandwidth from this memory (bytes/s)
system.mem_ctrls.bw_read::cpu15.data          4321211                       # Total read bandwidth from this memory (bytes/s)
system.mem_ctrls.bw_read::total             481591501                       # Total read bandwidth from this memory (bytes/s)
system.mem_ctrls.bw_inst_read::cpu00.inst     95960683                       # Instruction read bandwidth from this memory (bytes/s)
system.mem_ctrls.bw_inst_read::cpu01.inst     10082825                       # Instruction read bandwidth from this memory (bytes/s)
system.mem_ctrls.bw_inst_read::cpu02.inst      1142389                       # Instruction read bandwidth from this memory (bytes/s)
system.mem_ctrls.bw_inst_read::cpu03.inst       496691                       # Instruction read bandwidth from this memory (bytes/s)
system.mem_ctrls.bw_inst_read::cpu04.inst       645698                       # Instruction read bandwidth from this memory (bytes/s)
system.mem_ctrls.bw_inst_read::cpu05.inst      2781469                       # Instruction read bandwidth from this memory (bytes/s)
system.mem_ctrls.bw_inst_read::cpu06.inst      3278160                       # Instruction read bandwidth from this memory (bytes/s)
system.mem_ctrls.bw_inst_read::cpu07.inst       298015                       # Instruction read bandwidth from this memory (bytes/s)
system.mem_ctrls.bw_inst_read::cpu08.inst       943713                       # Instruction read bandwidth from this memory (bytes/s)
system.mem_ctrls.bw_inst_read::cpu09.inst       198676                       # Instruction read bandwidth from this memory (bytes/s)
system.mem_ctrls.bw_inst_read::cpu10.inst       596029                       # Instruction read bandwidth from this memory (bytes/s)
system.mem_ctrls.bw_inst_read::cpu11.inst       397353                       # Instruction read bandwidth from this memory (bytes/s)
system.mem_ctrls.bw_inst_read::cpu12.inst       447022                       # Instruction read bandwidth from this memory (bytes/s)
system.mem_ctrls.bw_inst_read::cpu13.inst       397353                       # Instruction read bandwidth from this memory (bytes/s)
system.mem_ctrls.bw_inst_read::cpu14.inst       149007                       # Instruction read bandwidth from this memory (bytes/s)
system.mem_ctrls.bw_inst_read::cpu15.inst       894044                       # Instruction read bandwidth from this memory (bytes/s)
system.mem_ctrls.bw_inst_read::total        118709126                       # Instruction read bandwidth from this memory (bytes/s)
system.mem_ctrls.bw_write::writebacks        61937356                       # Write bandwidth from this memory (bytes/s)
system.mem_ctrls.bw_write::total             61937356                       # Write bandwidth from this memory (bytes/s)
system.mem_ctrls.bw_total::writebacks        61937356                       # Total bandwidth to/from this memory (bytes/s)
system.mem_ctrls.bw_total::cpu00.inst        95960683                       # Total bandwidth to/from this memory (bytes/s)
system.mem_ctrls.bw_total::cpu00.data       293743001                       # Total bandwidth to/from this memory (bytes/s)
system.mem_ctrls.bw_total::cpu01.inst        10082825                       # Total bandwidth to/from this memory (bytes/s)
system.mem_ctrls.bw_total::cpu01.data         5264924                       # Total bandwidth to/from this memory (bytes/s)
system.mem_ctrls.bw_total::cpu02.inst         1142389                       # Total bandwidth to/from this memory (bytes/s)
system.mem_ctrls.bw_total::cpu02.data         4966909                       # Total bandwidth to/from this memory (bytes/s)
system.mem_ctrls.bw_total::cpu03.inst          496691                       # Total bandwidth to/from this memory (bytes/s)
system.mem_ctrls.bw_total::cpu03.data         5364262                       # Total bandwidth to/from this memory (bytes/s)
system.mem_ctrls.bw_total::cpu04.inst          645698                       # Total bandwidth to/from this memory (bytes/s)
system.mem_ctrls.bw_total::cpu04.data         4470218                       # Total bandwidth to/from this memory (bytes/s)
system.mem_ctrls.bw_total::cpu05.inst         2781469                       # Total bandwidth to/from this memory (bytes/s)
system.mem_ctrls.bw_total::cpu05.data         4966909                       # Total bandwidth to/from this memory (bytes/s)
system.mem_ctrls.bw_total::cpu06.inst         3278160                       # Total bandwidth to/from this memory (bytes/s)
system.mem_ctrls.bw_total::cpu06.data         5314593                       # Total bandwidth to/from this memory (bytes/s)
system.mem_ctrls.bw_total::cpu07.inst          298015                       # Total bandwidth to/from this memory (bytes/s)
system.mem_ctrls.bw_total::cpu07.data         5215254                       # Total bandwidth to/from this memory (bytes/s)
system.mem_ctrls.bw_total::cpu08.inst          943713                       # Total bandwidth to/from this memory (bytes/s)
system.mem_ctrls.bw_total::cpu08.data         4321211                       # Total bandwidth to/from this memory (bytes/s)
system.mem_ctrls.bw_total::cpu09.inst          198676                       # Total bandwidth to/from this memory (bytes/s)
system.mem_ctrls.bw_total::cpu09.data         3576175                       # Total bandwidth to/from this memory (bytes/s)
system.mem_ctrls.bw_total::cpu10.inst          596029                       # Total bandwidth to/from this memory (bytes/s)
system.mem_ctrls.bw_total::cpu10.data         3476836                       # Total bandwidth to/from this memory (bytes/s)
system.mem_ctrls.bw_total::cpu11.inst          397353                       # Total bandwidth to/from this memory (bytes/s)
system.mem_ctrls.bw_total::cpu11.data         3824520                       # Total bandwidth to/from this memory (bytes/s)
system.mem_ctrls.bw_total::cpu12.inst          447022                       # Total bandwidth to/from this memory (bytes/s)
system.mem_ctrls.bw_total::cpu12.data         4917240                       # Total bandwidth to/from this memory (bytes/s)
system.mem_ctrls.bw_total::cpu13.inst          397353                       # Total bandwidth to/from this memory (bytes/s)
system.mem_ctrls.bw_total::cpu13.data         4817902                       # Total bandwidth to/from this memory (bytes/s)
system.mem_ctrls.bw_total::cpu14.inst          149007                       # Total bandwidth to/from this memory (bytes/s)
system.mem_ctrls.bw_total::cpu14.data         4321211                       # Total bandwidth to/from this memory (bytes/s)
system.mem_ctrls.bw_total::cpu15.inst          894044                       # Total bandwidth to/from this memory (bytes/s)
system.mem_ctrls.bw_total::cpu15.data         4321211                       # Total bandwidth to/from this memory (bytes/s)
system.mem_ctrls.bw_total::total            543528857                       # Total bandwidth to/from this memory (bytes/s)
system.cpu00.branchPred.lookups                133596                       # Number of BP lookups
system.cpu00.branchPred.condPredicted           74695                       # Number of conditional branches predicted
system.cpu00.branchPred.condIncorrect            5730                       # Number of conditional branches incorrect
system.cpu00.branchPred.BTBLookups              86903                       # Number of BTB lookups
system.cpu00.branchPred.BTBHits                 66810                       # Number of BTB hits
system.cpu00.branchPred.BTBCorrect                  0                       # Number of correct BTB predictions (this stat may not work properly.
system.cpu00.branchPred.BTBHitPct           76.878819                       # BTB Hit Percentage
system.cpu00.branchPred.usedRAS                 26564                       # Number of times the RAS was used to get a target.
system.cpu00.branchPred.RASInCorrect               93                       # Number of incorrect RAS predictions.
system.cpu00.branchPred.indirectLookups          3663                       # Number of indirect predictor lookups.
system.cpu00.branchPred.indirectHits             2892                       # Number of indirect target hits.
system.cpu00.branchPred.indirectMisses            771                       # Number of indirect misses.
system.cpu00.branchPredindirectMispredicted          248                       # Number of mispredicted indirect branches.
system.cpu_voltage_domain.voltage                   1                       # Voltage in Volts
system.cpu_clk_domain.clock                      1161                       # Clock period in ticks
system.cpu00.dtb.fetch_hits                         0                       # ITB hits
system.cpu00.dtb.fetch_misses                       0                       # ITB misses
system.cpu00.dtb.fetch_acv                          0                       # ITB acv
system.cpu00.dtb.fetch_accesses                     0                       # ITB accesses
system.cpu00.dtb.read_hits                     183180                       # DTB read hits
system.cpu00.dtb.read_misses                      635                       # DTB read misses
system.cpu00.dtb.read_acv                           0                       # DTB read access violations
system.cpu00.dtb.read_accesses                 183815                       # DTB read accesses
system.cpu00.dtb.write_hits                    128037                       # DTB write hits
system.cpu00.dtb.write_misses                    1049                       # DTB write misses
system.cpu00.dtb.write_acv                          0                       # DTB write access violations
system.cpu00.dtb.write_accesses                129086                       # DTB write accesses
system.cpu00.dtb.data_hits                     311217                       # DTB hits
system.cpu00.dtb.data_misses                     1684                       # DTB misses
system.cpu00.dtb.data_acv                           0                       # DTB access violations
system.cpu00.dtb.data_accesses                 312901                       # DTB accesses
system.cpu00.itb.fetch_hits                    150127                       # ITB hits
system.cpu00.itb.fetch_misses                     151                       # ITB misses
system.cpu00.itb.fetch_acv                          0                       # ITB acv
system.cpu00.itb.fetch_accesses                150278                       # ITB accesses
system.cpu00.itb.read_hits                          0                       # DTB read hits
system.cpu00.itb.read_misses                        0                       # DTB read misses
system.cpu00.itb.read_acv                           0                       # DTB read access violations
system.cpu00.itb.read_accesses                      0                       # DTB read accesses
system.cpu00.itb.write_hits                         0                       # DTB write hits
system.cpu00.itb.write_misses                       0                       # DTB write misses
system.cpu00.itb.write_acv                          0                       # DTB write access violations
system.cpu00.itb.write_accesses                     0                       # DTB write accesses
system.cpu00.itb.data_hits                          0                       # DTB hits
system.cpu00.itb.data_misses                        0                       # DTB misses
system.cpu00.itb.data_acv                           0                       # DTB access violations
system.cpu00.itb.data_accesses                      0                       # DTB accesses
system.cpu00.workload.num_syscalls               2104                       # Number of system calls
system.cpu00.numCycles                        1037166                       # number of cpu cycles simulated
system.cpu00.numWorkItemsStarted                    0                       # number of work items this cpu started
system.cpu00.numWorkItemsCompleted                  0                       # number of work items this cpu completed
system.cpu00.fetch.icacheStallCycles            83245                       # Number of cycles fetch is stalled on an Icache miss
system.cpu00.fetch.Insts                      1195567                       # Number of instructions fetch has processed
system.cpu00.fetch.Branches                    133596                       # Number of branches that fetch encountered
system.cpu00.fetch.predictedBranches            96266                       # Number of branches that fetch has predicted taken
system.cpu00.fetch.Cycles                      733622                       # Number of cycles fetch has run and was not squashing or blocked
system.cpu00.fetch.SquashCycles                 12838                       # Number of cycles fetch has spent squashing
system.cpu00.fetch.MiscStallCycles                364                       # Number of cycles fetch has spent waiting on interrupts, or bad addresses, or out of MSHRs
system.cpu00.fetch.PendingTrapStallCycles         6189                       # Number of stall cycles due to pending traps
system.cpu00.fetch.IcacheWaitRetryStallCycles          613                       # Number of stall cycles due to full MSHR
system.cpu00.fetch.CacheLines                  150127                       # Number of cache lines fetched
system.cpu00.fetch.IcacheSquashes                2622                       # Number of outstanding Icache misses that were squashed
system.cpu00.fetch.rateDist::samples           830452                       # Number of instructions fetched each cycle (Total)
system.cpu00.fetch.rateDist::mean            1.439658                       # Number of instructions fetched each cycle (Total)
system.cpu00.fetch.rateDist::stdev           2.707482                       # Number of instructions fetched each cycle (Total)
system.cpu00.fetch.rateDist::underflows             0      0.00%      0.00% # Number of instructions fetched each cycle (Total)
system.cpu00.fetch.rateDist::0                 610477     73.51%     73.51% # Number of instructions fetched each cycle (Total)
system.cpu00.fetch.rateDist::1                  16693      2.01%     75.52% # Number of instructions fetched each cycle (Total)
system.cpu00.fetch.rateDist::2                  18479      2.23%     77.75% # Number of instructions fetched each cycle (Total)
system.cpu00.fetch.rateDist::3                  17470      2.10%     79.85% # Number of instructions fetched each cycle (Total)
system.cpu00.fetch.rateDist::4                  37877      4.56%     84.41% # Number of instructions fetched each cycle (Total)
system.cpu00.fetch.rateDist::5                  16162      1.95%     86.36% # Number of instructions fetched each cycle (Total)
system.cpu00.fetch.rateDist::6                  18758      2.26%     88.62% # Number of instructions fetched each cycle (Total)
system.cpu00.fetch.rateDist::7                  11648      1.40%     90.02% # Number of instructions fetched each cycle (Total)
system.cpu00.fetch.rateDist::8                  82888      9.98%    100.00% # Number of instructions fetched each cycle (Total)
system.cpu00.fetch.rateDist::overflows              0      0.00%    100.00% # Number of instructions fetched each cycle (Total)
system.cpu00.fetch.rateDist::min_value              0                       # Number of instructions fetched each cycle (Total)
system.cpu00.fetch.rateDist::max_value              8                       # Number of instructions fetched each cycle (Total)
system.cpu00.fetch.rateDist::total             830452                       # Number of instructions fetched each cycle (Total)
system.cpu00.fetch.branchRate                0.128809                       # Number of branch fetches per cycle
system.cpu00.fetch.rate                      1.152725                       # Number of inst fetches per cycle
system.cpu00.decode.IdleCycles                  90658                       # Number of cycles decode is idle
system.cpu00.decode.BlockedCycles              571918                       # Number of cycles decode is blocked
system.cpu00.decode.RunCycles                  128656                       # Number of cycles decode is running
system.cpu00.decode.UnblockCycles               34547                       # Number of cycles decode is unblocking
system.cpu00.decode.SquashCycles                 4673                       # Number of cycles decode is squashing
system.cpu00.decode.BranchResolved              26502                       # Number of times decode resolved a branch
system.cpu00.decode.BranchMispred                1787                       # Number of times decode detected a branch misprediction
system.cpu00.decode.DecodedInsts              1127135                       # Number of instructions handled by decode
system.cpu00.decode.SquashedInsts                7354                       # Number of squashed instructions handled by decode
system.cpu00.rename.SquashCycles                 4673                       # Number of cycles rename is squashing
system.cpu00.rename.IdleCycles                 106846                       # Number of cycles rename is idle
system.cpu00.rename.BlockCycles                 92711                       # Number of cycles rename is blocking
system.cpu00.rename.serializeStallCycles       221999                       # count of cycles rename stalled for serializing inst
system.cpu00.rename.RunCycles                  147004                       # Number of cycles rename is running
system.cpu00.rename.UnblockCycles              257219                       # Number of cycles rename is unblocking
system.cpu00.rename.RenamedInsts              1107555                       # Number of instructions processed by rename
system.cpu00.rename.ROBFullEvents                2744                       # Number of times rename has blocked due to ROB full
system.cpu00.rename.IQFullEvents                24977                       # Number of times rename has blocked due to IQ full
system.cpu00.rename.LQFullEvents                 2319                       # Number of times rename has blocked due to LQ full
system.cpu00.rename.SQFullEvents               219634                       # Number of times rename has blocked due to SQ full
system.cpu00.rename.RenamedOperands            759400                       # Number of destination operands rename has renamed
system.cpu00.rename.RenameLookups             1371506                       # Number of register rename lookups that rename has made
system.cpu00.rename.int_rename_lookups        1213530                       # Number of integer rename lookups
system.cpu00.rename.fp_rename_lookups          155689                       # Number of floating rename lookups
system.cpu00.rename.CommittedMaps              668982                       # Number of HB maps that are committed
system.cpu00.rename.UndoneMaps                  90418                       # Number of HB maps that are undone due to squashing
system.cpu00.rename.serializingInsts             4086                       # count of serializing insts renamed
system.cpu00.rename.tempSerializingInsts         1713                       # count of temporary serializing insts renamed
system.cpu00.rename.skidInsts                  154768                       # count of insts added to the skid buffer
system.cpu00.memDep0.insertedLoads             179971                       # Number of loads inserted to the mem dependence unit.
system.cpu00.memDep0.insertedStores            135483                       # Number of stores inserted to the mem dependence unit.
system.cpu00.memDep0.conflictingLoads           32337                       # Number of conflicting loads.
system.cpu00.memDep0.conflictingStores          12744                       # Number of conflicting stores.
system.cpu00.iq.iqInstsAdded                   970718                       # Number of instructions added to the IQ (excludes non-spec)
system.cpu00.iq.iqNonSpecInstsAdded              2801                       # Number of non-speculative instructions added to the IQ
system.cpu00.iq.iqInstsIssued                  955230                       # Number of instructions issued
system.cpu00.iq.iqSquashedInstsIssued            1857                       # Number of squashed instructions issued
system.cpu00.iq.iqSquashedInstsExamined        103424                       # Number of squashed instructions iterated over during squash; mainly for profiling
system.cpu00.iq.iqSquashedOperandsExamined        52036                       # Number of squashed operands that are examined and possibly removed from graph
system.cpu00.iq.iqSquashedNonSpecRemoved          424                       # Number of squashed non-spec instructions that were removed
system.cpu00.iq.issued_per_cycle::samples       830452                       # Number of insts issued each cycle
system.cpu00.iq.issued_per_cycle::mean       1.150253                       # Number of insts issued each cycle
system.cpu00.iq.issued_per_cycle::stdev      1.912680                       # Number of insts issued each cycle
system.cpu00.iq.issued_per_cycle::underflows            0      0.00%      0.00% # Number of insts issued each cycle
system.cpu00.iq.issued_per_cycle::0            528188     63.60%     63.60% # Number of insts issued each cycle
system.cpu00.iq.issued_per_cycle::1             75750      9.12%     72.72% # Number of insts issued each cycle
system.cpu00.iq.issued_per_cycle::2             62245      7.50%     80.22% # Number of insts issued each cycle
system.cpu00.iq.issued_per_cycle::3             46793      5.63%     85.85% # Number of insts issued each cycle
system.cpu00.iq.issued_per_cycle::4             43669      5.26%     91.11% # Number of insts issued each cycle
system.cpu00.iq.issued_per_cycle::5             29030      3.50%     94.61% # Number of insts issued each cycle
system.cpu00.iq.issued_per_cycle::6             26124      3.15%     97.75% # Number of insts issued each cycle
system.cpu00.iq.issued_per_cycle::7             11183      1.35%     99.10% # Number of insts issued each cycle
system.cpu00.iq.issued_per_cycle::8              7470      0.90%    100.00% # Number of insts issued each cycle
system.cpu00.iq.issued_per_cycle::overflows            0      0.00%    100.00% # Number of insts issued each cycle
system.cpu00.iq.issued_per_cycle::min_value            0                       # Number of insts issued each cycle
system.cpu00.iq.issued_per_cycle::max_value            8                       # Number of insts issued each cycle
system.cpu00.iq.issued_per_cycle::total        830452                       # Number of insts issued each cycle
system.cpu00.iq.fu_full::No_OpClass                 0      0.00%      0.00% # attempts to use FU when none available
system.cpu00.iq.fu_full::IntAlu                  4761     15.26%     15.26% # attempts to use FU when none available
system.cpu00.iq.fu_full::IntMult                 4097     13.13%     28.39% # attempts to use FU when none available
system.cpu00.iq.fu_full::IntDiv                     0      0.00%     28.39% # attempts to use FU when none available
system.cpu00.iq.fu_full::FloatAdd                  79      0.25%     28.65% # attempts to use FU when none available
system.cpu00.iq.fu_full::FloatCmp                   0      0.00%     28.65% # attempts to use FU when none available
system.cpu00.iq.fu_full::FloatCvt                   0      0.00%     28.65% # attempts to use FU when none available
system.cpu00.iq.fu_full::FloatMult               5959     19.10%     47.75% # attempts to use FU when none available
system.cpu00.iq.fu_full::FloatDiv                   0      0.00%     47.75% # attempts to use FU when none available
system.cpu00.iq.fu_full::FloatSqrt                  0      0.00%     47.75% # attempts to use FU when none available
system.cpu00.iq.fu_full::SimdAdd                    0      0.00%     47.75% # attempts to use FU when none available
system.cpu00.iq.fu_full::SimdAddAcc                 0      0.00%     47.75% # attempts to use FU when none available
system.cpu00.iq.fu_full::SimdAlu                    0      0.00%     47.75% # attempts to use FU when none available
system.cpu00.iq.fu_full::SimdCmp                    0      0.00%     47.75% # attempts to use FU when none available
system.cpu00.iq.fu_full::SimdCvt                    0      0.00%     47.75% # attempts to use FU when none available
system.cpu00.iq.fu_full::SimdMisc                   0      0.00%     47.75% # attempts to use FU when none available
system.cpu00.iq.fu_full::SimdMult                   0      0.00%     47.75% # attempts to use FU when none available
system.cpu00.iq.fu_full::SimdMultAcc                0      0.00%     47.75% # attempts to use FU when none available
system.cpu00.iq.fu_full::SimdShift                  0      0.00%     47.75% # attempts to use FU when none available
system.cpu00.iq.fu_full::SimdShiftAcc               0      0.00%     47.75% # attempts to use FU when none available
system.cpu00.iq.fu_full::SimdSqrt                   0      0.00%     47.75% # attempts to use FU when none available
system.cpu00.iq.fu_full::SimdFloatAdd               0      0.00%     47.75% # attempts to use FU when none available
system.cpu00.iq.fu_full::SimdFloatAlu               0      0.00%     47.75% # attempts to use FU when none available
system.cpu00.iq.fu_full::SimdFloatCmp               0      0.00%     47.75% # attempts to use FU when none available
system.cpu00.iq.fu_full::SimdFloatCvt               0      0.00%     47.75% # attempts to use FU when none available
system.cpu00.iq.fu_full::SimdFloatDiv               0      0.00%     47.75% # attempts to use FU when none available
system.cpu00.iq.fu_full::SimdFloatMisc              0      0.00%     47.75% # attempts to use FU when none available
system.cpu00.iq.fu_full::SimdFloatMult              0      0.00%     47.75% # attempts to use FU when none available
system.cpu00.iq.fu_full::SimdFloatMultAcc            0      0.00%     47.75% # attempts to use FU when none available
system.cpu00.iq.fu_full::SimdFloatSqrt              0      0.00%     47.75% # attempts to use FU when none available
system.cpu00.iq.fu_full::MemRead                10032     32.16%     79.90% # attempts to use FU when none available
system.cpu00.iq.fu_full::MemWrite                6270     20.10%    100.00% # attempts to use FU when none available
system.cpu00.iq.fu_full::IprAccess                  0      0.00%    100.00% # attempts to use FU when none available
system.cpu00.iq.fu_full::InstPrefetch               0      0.00%    100.00% # attempts to use FU when none available
system.cpu00.iq.FU_type_0::No_OpClass               0      0.00%      0.00% # Type of FU issued
system.cpu00.iq.FU_type_0::IntAlu              552052     57.79%     57.79% # Type of FU issued
system.cpu00.iq.FU_type_0::IntMult              12787      1.34%     59.13% # Type of FU issued
system.cpu00.iq.FU_type_0::IntDiv                   0      0.00%     59.13% # Type of FU issued
system.cpu00.iq.FU_type_0::FloatAdd             35715      3.74%     62.87% # Type of FU issued
system.cpu00.iq.FU_type_0::FloatCmp                 8      0.00%     62.87% # Type of FU issued
system.cpu00.iq.FU_type_0::FloatCvt                 0      0.00%     62.87% # Type of FU issued
system.cpu00.iq.FU_type_0::FloatMult            37103      3.88%     66.76% # Type of FU issued
system.cpu00.iq.FU_type_0::FloatDiv                16      0.00%     66.76% # Type of FU issued
system.cpu00.iq.FU_type_0::FloatSqrt                0      0.00%     66.76% # Type of FU issued
system.cpu00.iq.FU_type_0::SimdAdd                  0      0.00%     66.76% # Type of FU issued
system.cpu00.iq.FU_type_0::SimdAddAcc               0      0.00%     66.76% # Type of FU issued
system.cpu00.iq.FU_type_0::SimdAlu                  0      0.00%     66.76% # Type of FU issued
system.cpu00.iq.FU_type_0::SimdCmp                  0      0.00%     66.76% # Type of FU issued
system.cpu00.iq.FU_type_0::SimdCvt                  0      0.00%     66.76% # Type of FU issued
system.cpu00.iq.FU_type_0::SimdMisc                 0      0.00%     66.76% # Type of FU issued
system.cpu00.iq.FU_type_0::SimdMult                 0      0.00%     66.76% # Type of FU issued
system.cpu00.iq.FU_type_0::SimdMultAcc              0      0.00%     66.76% # Type of FU issued
system.cpu00.iq.FU_type_0::SimdShift                0      0.00%     66.76% # Type of FU issued
system.cpu00.iq.FU_type_0::SimdShiftAcc             0      0.00%     66.76% # Type of FU issued
system.cpu00.iq.FU_type_0::SimdSqrt                 0      0.00%     66.76% # Type of FU issued
system.cpu00.iq.FU_type_0::SimdFloatAdd             0      0.00%     66.76% # Type of FU issued
system.cpu00.iq.FU_type_0::SimdFloatAlu             0      0.00%     66.76% # Type of FU issued
system.cpu00.iq.FU_type_0::SimdFloatCmp             0      0.00%     66.76% # Type of FU issued
system.cpu00.iq.FU_type_0::SimdFloatCvt             0      0.00%     66.76% # Type of FU issued
system.cpu00.iq.FU_type_0::SimdFloatDiv             0      0.00%     66.76% # Type of FU issued
system.cpu00.iq.FU_type_0::SimdFloatMisc            0      0.00%     66.76% # Type of FU issued
system.cpu00.iq.FU_type_0::SimdFloatMult            0      0.00%     66.76% # Type of FU issued
system.cpu00.iq.FU_type_0::SimdFloatMultAcc            0      0.00%     66.76% # Type of FU issued
system.cpu00.iq.FU_type_0::SimdFloatSqrt            0      0.00%     66.76% # Type of FU issued
system.cpu00.iq.FU_type_0::MemRead             186936     19.57%     86.33% # Type of FU issued
system.cpu00.iq.FU_type_0::MemWrite            130613     13.67%    100.00% # Type of FU issued
system.cpu00.iq.FU_type_0::IprAccess                0      0.00%    100.00% # Type of FU issued
system.cpu00.iq.FU_type_0::InstPrefetch             0      0.00%    100.00% # Type of FU issued
system.cpu00.iq.FU_type_0::total               955230                       # Type of FU issued
system.cpu00.iq.rate                         0.921000                       # Inst issue rate
system.cpu00.iq.fu_busy_cnt                     31198                       # FU busy when requested
system.cpu00.iq.fu_busy_rate                 0.032660                       # FU busy rate (busy events/executed inst)
system.cpu00.iq.int_inst_queue_reads          2530326                       # Number of integer instruction queue reads
system.cpu00.iq.int_inst_queue_writes          954114                       # Number of integer instruction queue writes
system.cpu00.iq.int_inst_queue_wakeup_accesses       815054                       # Number of integer instruction queue wakeup accesses
system.cpu00.iq.fp_inst_queue_reads            243641                       # Number of floating instruction queue reads
system.cpu00.iq.fp_inst_queue_writes           123254                       # Number of floating instruction queue writes
system.cpu00.iq.fp_inst_queue_wakeup_accesses       116954                       # Number of floating instruction queue wakeup accesses
system.cpu00.iq.int_alu_accesses               861233                       # Number of integer alu accesses
system.cpu00.iq.fp_alu_accesses                125195                       # Number of floating point alu accesses
system.cpu00.iew.lsq.thread0.forwLoads          21231                       # Number of loads that had data forwarded from stores
system.cpu00.iew.lsq.thread0.invAddrLoads            0                       # Number of loads ignored due to an invalid address
system.cpu00.iew.lsq.thread0.squashedLoads        18958                       # Number of loads squashed
system.cpu00.iew.lsq.thread0.ignoredResponses           75                       # Number of memory responses ignored because the instruction is squashed
system.cpu00.iew.lsq.thread0.memOrderViolation          436                       # Number of memory ordering violations
system.cpu00.iew.lsq.thread0.squashedStores        15955                       # Number of stores squashed
system.cpu00.iew.lsq.thread0.invAddrSwpfs            0                       # Number of software prefetches ignored due to an invalid address
system.cpu00.iew.lsq.thread0.blockedLoads            0                       # Number of blocked loads due to partial load-store forwarding
system.cpu00.iew.lsq.thread0.rescheduledLoads          222                       # Number of loads that were rescheduled
system.cpu00.iew.lsq.thread0.cacheBlocked        12256                       # Number of times an access to memory failed due to the cache being blocked
system.cpu00.iew.iewIdleCycles                      0                       # Number of cycles IEW is idle
system.cpu00.iew.iewSquashCycles                 4673                       # Number of cycles IEW is squashing
system.cpu00.iew.iewBlockCycles                 23074                       # Number of cycles IEW is blocking
system.cpu00.iew.iewUnblockCycles               59957                       # Number of cycles IEW is unblocking
system.cpu00.iew.iewDispatchedInsts           1081250                       # Number of instructions dispatched to IQ
system.cpu00.iew.iewDispSquashedInsts            1473                       # Number of squashed instructions skipped by dispatch
system.cpu00.iew.iewDispLoadInsts              179971                       # Number of dispatched load instructions
system.cpu00.iew.iewDispStoreInsts             135483                       # Number of dispatched store instructions
system.cpu00.iew.iewDispNonSpecInsts             1625                       # Number of dispatched non-speculative instructions
system.cpu00.iew.iewIQFullEvents                  172                       # Number of times the IQ has become full, causing a stall
system.cpu00.iew.iewLSQFullEvents               59714                       # Number of times the LSQ has become full, causing a stall
system.cpu00.iew.memOrderViolationEvents          436                       # Number of memory order violations
system.cpu00.iew.predictedTakenIncorrect         1597                       # Number of branches that were predicted taken incorrectly
system.cpu00.iew.predictedNotTakenIncorrect         3159                       # Number of branches that were predicted not taken incorrectly
system.cpu00.iew.branchMispredicts               4756                       # Number of branch mispredicts detected at execute
system.cpu00.iew.iewExecutedInsts              947820                       # Number of executed instructions
system.cpu00.iew.iewExecLoadInsts              183836                       # Number of load instructions executed
system.cpu00.iew.iewExecSquashedInsts            7410                       # Number of squashed instructions skipped in execute
system.cpu00.iew.exec_swp                           0                       # number of swp insts executed
system.cpu00.iew.exec_nop                      107731                       # number of nop insts executed
system.cpu00.iew.exec_refs                     312930                       # number of memory reference insts executed
system.cpu00.iew.exec_branches                 110580                       # Number of branches executed
system.cpu00.iew.exec_stores                   129094                       # Number of stores executed
system.cpu00.iew.exec_rate                   0.913856                       # Inst execution rate
system.cpu00.iew.wb_sent                       935255                       # cumulative count of insts sent to commit
system.cpu00.iew.wb_count                      932008                       # cumulative count of insts written-back
system.cpu00.iew.wb_producers                  546196                       # num instructions producing a value
system.cpu00.iew.wb_consumers                  779041                       # num instructions consuming a value
system.cpu00.iew.wb_rate                     0.898610                       # insts written-back per cycle
system.cpu00.iew.wb_fanout                   0.701113                       # average fanout of values written-back
system.cpu00.commit.commitSquashedInsts        107859                       # The number of squashed insts skipped by commit
system.cpu00.commit.commitNonSpecStalls          2377                       # The number of times commit has been forced to stall to communicate backwards
system.cpu00.commit.branchMispredicts            3984                       # The number of times a branch was mispredicted
system.cpu00.commit.committed_per_cycle::samples       813515                       # Number of insts commited each cycle
system.cpu00.commit.committed_per_cycle::mean     1.190832                       # Number of insts commited each cycle
system.cpu00.commit.committed_per_cycle::stdev     2.295715                       # Number of insts commited each cycle
system.cpu00.commit.committed_per_cycle::underflows            0      0.00%      0.00% # Number of insts commited each cycle
system.cpu00.commit.committed_per_cycle::0       565087     69.46%     69.46% # Number of insts commited each cycle
system.cpu00.commit.committed_per_cycle::1        52068      6.40%     75.86% # Number of insts commited each cycle
system.cpu00.commit.committed_per_cycle::2        51244      6.30%     82.16% # Number of insts commited each cycle
system.cpu00.commit.committed_per_cycle::3        29973      3.68%     85.85% # Number of insts commited each cycle
system.cpu00.commit.committed_per_cycle::4        34857      4.28%     90.13% # Number of insts commited each cycle
system.cpu00.commit.committed_per_cycle::5         9022      1.11%     91.24% # Number of insts commited each cycle
system.cpu00.commit.committed_per_cycle::6        12808      1.57%     92.81% # Number of insts commited each cycle
system.cpu00.commit.committed_per_cycle::7         4749      0.58%     93.40% # Number of insts commited each cycle
system.cpu00.commit.committed_per_cycle::8        53707      6.60%    100.00% # Number of insts commited each cycle
system.cpu00.commit.committed_per_cycle::overflows            0      0.00%    100.00% # Number of insts commited each cycle
system.cpu00.commit.committed_per_cycle::min_value            0                       # Number of insts commited each cycle
system.cpu00.commit.committed_per_cycle::max_value            8                       # Number of insts commited each cycle
system.cpu00.commit.committed_per_cycle::total       813515                       # Number of insts commited each cycle
system.cpu00.commit.committedInsts             968760                       # Number of instructions committed
system.cpu00.commit.committedOps               968760                       # Number of ops (including micro ops) committed
system.cpu00.commit.swp_count                       0                       # Number of s/w prefetches committed
system.cpu00.commit.refs                       280541                       # Number of memory references committed
system.cpu00.commit.loads                      161013                       # Number of loads committed
system.cpu00.commit.membars                      1038                       # Number of memory barriers committed
system.cpu00.commit.branches                   100167                       # Number of branches committed
system.cpu00.commit.fp_insts                   116058                       # Number of committed floating point instructions.
system.cpu00.commit.int_insts                  792222                       # Number of committed integer instructions.
system.cpu00.commit.function_calls              22221                       # Number of function calls committed.
system.cpu00.commit.op_class_0::No_OpClass        98666     10.18%     10.18% # Class of committed instruction
system.cpu00.commit.op_class_0::IntAlu         503388     51.96%     62.15% # Class of committed instruction
system.cpu00.commit.op_class_0::IntMult         12689      1.31%     63.46% # Class of committed instruction
system.cpu00.commit.op_class_0::IntDiv              0      0.00%     63.46% # Class of committed instruction
system.cpu00.commit.op_class_0::FloatAdd        35480      3.66%     67.12% # Class of committed instruction
system.cpu00.commit.op_class_0::FloatCmp            8      0.00%     67.12% # Class of committed instruction
system.cpu00.commit.op_class_0::FloatCvt            0      0.00%     67.12% # Class of committed instruction
system.cpu00.commit.op_class_0::FloatMult        36935      3.81%     70.93% # Class of committed instruction
system.cpu00.commit.op_class_0::FloatDiv           14      0.00%     70.93% # Class of committed instruction
system.cpu00.commit.op_class_0::FloatSqrt            0      0.00%     70.93% # Class of committed instruction
system.cpu00.commit.op_class_0::SimdAdd             0      0.00%     70.93% # Class of committed instruction
system.cpu00.commit.op_class_0::SimdAddAcc            0      0.00%     70.93% # Class of committed instruction
system.cpu00.commit.op_class_0::SimdAlu             0      0.00%     70.93% # Class of committed instruction
system.cpu00.commit.op_class_0::SimdCmp             0      0.00%     70.93% # Class of committed instruction
system.cpu00.commit.op_class_0::SimdCvt             0      0.00%     70.93% # Class of committed instruction
system.cpu00.commit.op_class_0::SimdMisc            0      0.00%     70.93% # Class of committed instruction
system.cpu00.commit.op_class_0::SimdMult            0      0.00%     70.93% # Class of committed instruction
system.cpu00.commit.op_class_0::SimdMultAcc            0      0.00%     70.93% # Class of committed instruction
system.cpu00.commit.op_class_0::SimdShift            0      0.00%     70.93% # Class of committed instruction
system.cpu00.commit.op_class_0::SimdShiftAcc            0      0.00%     70.93% # Class of committed instruction
system.cpu00.commit.op_class_0::SimdSqrt            0      0.00%     70.93% # Class of committed instruction
system.cpu00.commit.op_class_0::SimdFloatAdd            0      0.00%     70.93% # Class of committed instruction
system.cpu00.commit.op_class_0::SimdFloatAlu            0      0.00%     70.93% # Class of committed instruction
system.cpu00.commit.op_class_0::SimdFloatCmp            0      0.00%     70.93% # Class of committed instruction
system.cpu00.commit.op_class_0::SimdFloatCvt            0      0.00%     70.93% # Class of committed instruction
system.cpu00.commit.op_class_0::SimdFloatDiv            0      0.00%     70.93% # Class of committed instruction
system.cpu00.commit.op_class_0::SimdFloatMisc            0      0.00%     70.93% # Class of committed instruction
system.cpu00.commit.op_class_0::SimdFloatMult            0      0.00%     70.93% # Class of committed instruction
system.cpu00.commit.op_class_0::SimdFloatMultAcc            0      0.00%     70.93% # Class of committed instruction
system.cpu00.commit.op_class_0::SimdFloatSqrt            0      0.00%     70.93% # Class of committed instruction
system.cpu00.commit.op_class_0::MemRead        162051     16.73%     87.66% # Class of committed instruction
system.cpu00.commit.op_class_0::MemWrite       119529     12.34%    100.00% # Class of committed instruction
system.cpu00.commit.op_class_0::IprAccess            0      0.00%    100.00% # Class of committed instruction
system.cpu00.commit.op_class_0::InstPrefetch            0      0.00%    100.00% # Class of committed instruction
system.cpu00.commit.op_class_0::total          968760                       # Class of committed instruction
system.cpu00.commit.bw_lim_events               53707                       # number cycles where commit BW limit reached
system.cpu00.rob.rob_reads                    1832436                       # The number of ROB reads
system.cpu00.rob.rob_writes                   2170295                       # The number of ROB writes
system.cpu00.timesIdled                          1442                       # Number of times that the entire CPU went into an idle state and unscheduled itself
system.cpu00.idleCycles                        206714                       # Total number of cycles that the CPU has spent unscheduled due to idling
system.cpu00.quiesceCycles                      72679                       # Total number of cycles that CPU has spent quiesced or waiting for an interrupt
system.cpu00.committedInsts                    870094                       # Number of Instructions Simulated
system.cpu00.committedOps                      870094                       # Number of Ops (including micro ops) Simulated
system.cpu00.cpi                             1.192016                       # CPI: Cycles Per Instruction
system.cpu00.cpi_total                       1.192016                       # CPI: Total CPI of All Threads
system.cpu00.ipc                             0.838915                       # IPC: Instructions Per Cycle
system.cpu00.ipc_total                       0.838915                       # IPC: Total IPC of All Threads
system.cpu00.int_regfile_reads                1144619                       # number of integer regfile reads
system.cpu00.int_regfile_writes                613354                       # number of integer regfile writes
system.cpu00.fp_regfile_reads                  151789                       # number of floating regfile reads
system.cpu00.fp_regfile_writes                 102892                       # number of floating regfile writes
system.cpu00.misc_regfile_reads                  4780                       # number of misc regfile reads
system.cpu00.misc_regfile_writes                 2258                       # number of misc regfile writes
system.cpu00.dcache.tags.replacements           17312                       # number of replacements
system.cpu00.dcache.tags.tagsinuse          62.975326                       # Cycle average of tags in use
system.cpu00.dcache.tags.total_refs            219435                       # Total number of references to valid blocks.
system.cpu00.dcache.tags.sampled_refs           17376                       # Sample count of references to valid blocks.
system.cpu00.dcache.tags.avg_refs           12.628626                       # Average number of references to valid blocks.
system.cpu00.dcache.tags.warmup_cycle        62206380                       # Cycle when the warmup percentage was hit.
system.cpu00.dcache.tags.occ_blocks::cpu00.data    62.975326                       # Average occupied blocks per requestor
system.cpu00.dcache.tags.occ_percent::cpu00.data     0.983989                       # Average percentage of cache occupancy
system.cpu00.dcache.tags.occ_percent::total     0.983989                       # Average percentage of cache occupancy
system.cpu00.dcache.tags.occ_task_id_blocks::1024           64                       # Occupied blocks per task id
system.cpu00.dcache.tags.age_task_id_blocks_1024::0           55                       # Occupied blocks per task id
system.cpu00.dcache.tags.age_task_id_blocks_1024::1            9                       # Occupied blocks per task id
system.cpu00.dcache.tags.occ_task_id_percent::1024            1                       # Percentage of cache occupancy per task id
system.cpu00.dcache.tags.tag_accesses          560109                       # Number of tag accesses
system.cpu00.dcache.tags.data_accesses         560109                       # Number of data accesses
system.cpu00.dcache.ReadReq_hits::cpu00.data       136564                       # number of ReadReq hits
system.cpu00.dcache.ReadReq_hits::total        136564                       # number of ReadReq hits
system.cpu00.dcache.WriteReq_hits::cpu00.data        80837                       # number of WriteReq hits
system.cpu00.dcache.WriteReq_hits::total        80837                       # number of WriteReq hits
system.cpu00.dcache.LoadLockedReq_hits::cpu00.data          836                       # number of LoadLockedReq hits
system.cpu00.dcache.LoadLockedReq_hits::total          836                       # number of LoadLockedReq hits
system.cpu00.dcache.StoreCondReq_hits::cpu00.data         1115                       # number of StoreCondReq hits
system.cpu00.dcache.StoreCondReq_hits::total         1115                       # number of StoreCondReq hits
system.cpu00.dcache.demand_hits::cpu00.data       217401                       # number of demand (read+write) hits
system.cpu00.dcache.demand_hits::total         217401                       # number of demand (read+write) hits
system.cpu00.dcache.overall_hits::cpu00.data       217401                       # number of overall hits
system.cpu00.dcache.overall_hits::total        217401                       # number of overall hits
system.cpu00.dcache.ReadReq_misses::cpu00.data        14016                       # number of ReadReq misses
system.cpu00.dcache.ReadReq_misses::total        14016                       # number of ReadReq misses
system.cpu00.dcache.WriteReq_misses::cpu00.data        37566                       # number of WriteReq misses
system.cpu00.dcache.WriteReq_misses::total        37566                       # number of WriteReq misses
system.cpu00.dcache.LoadLockedReq_misses::cpu00.data          357                       # number of LoadLockedReq misses
system.cpu00.dcache.LoadLockedReq_misses::total          357                       # number of LoadLockedReq misses
system.cpu00.dcache.StoreCondReq_misses::cpu00.data           10                       # number of StoreCondReq misses
system.cpu00.dcache.StoreCondReq_misses::total           10                       # number of StoreCondReq misses
system.cpu00.dcache.demand_misses::cpu00.data        51582                       # number of demand (read+write) misses
system.cpu00.dcache.demand_misses::total        51582                       # number of demand (read+write) misses
system.cpu00.dcache.overall_misses::cpu00.data        51582                       # number of overall misses
system.cpu00.dcache.overall_misses::total        51582                       # number of overall misses
system.cpu00.dcache.ReadReq_miss_latency::cpu00.data    488981853                       # number of ReadReq miss cycles
system.cpu00.dcache.ReadReq_miss_latency::total    488981853                       # number of ReadReq miss cycles
system.cpu00.dcache.WriteReq_miss_latency::cpu00.data   5459131592                       # number of WriteReq miss cycles
system.cpu00.dcache.WriteReq_miss_latency::total   5459131592                       # number of WriteReq miss cycles
system.cpu00.dcache.LoadLockedReq_miss_latency::cpu00.data      3496932                       # number of LoadLockedReq miss cycles
system.cpu00.dcache.LoadLockedReq_miss_latency::total      3496932                       # number of LoadLockedReq miss cycles
system.cpu00.dcache.StoreCondReq_miss_latency::cpu00.data       365715                       # number of StoreCondReq miss cycles
system.cpu00.dcache.StoreCondReq_miss_latency::total       365715                       # number of StoreCondReq miss cycles
system.cpu00.dcache.demand_miss_latency::cpu00.data   5948113445                       # number of demand (read+write) miss cycles
system.cpu00.dcache.demand_miss_latency::total   5948113445                       # number of demand (read+write) miss cycles
system.cpu00.dcache.overall_miss_latency::cpu00.data   5948113445                       # number of overall miss cycles
system.cpu00.dcache.overall_miss_latency::total   5948113445                       # number of overall miss cycles
system.cpu00.dcache.ReadReq_accesses::cpu00.data       150580                       # number of ReadReq accesses(hits+misses)
system.cpu00.dcache.ReadReq_accesses::total       150580                       # number of ReadReq accesses(hits+misses)
system.cpu00.dcache.WriteReq_accesses::cpu00.data       118403                       # number of WriteReq accesses(hits+misses)
system.cpu00.dcache.WriteReq_accesses::total       118403                       # number of WriteReq accesses(hits+misses)
system.cpu00.dcache.LoadLockedReq_accesses::cpu00.data         1193                       # number of LoadLockedReq accesses(hits+misses)
system.cpu00.dcache.LoadLockedReq_accesses::total         1193                       # number of LoadLockedReq accesses(hits+misses)
system.cpu00.dcache.StoreCondReq_accesses::cpu00.data         1125                       # number of StoreCondReq accesses(hits+misses)
system.cpu00.dcache.StoreCondReq_accesses::total         1125                       # number of StoreCondReq accesses(hits+misses)
system.cpu00.dcache.demand_accesses::cpu00.data       268983                       # number of demand (read+write) accesses
system.cpu00.dcache.demand_accesses::total       268983                       # number of demand (read+write) accesses
system.cpu00.dcache.overall_accesses::cpu00.data       268983                       # number of overall (read+write) accesses
system.cpu00.dcache.overall_accesses::total       268983                       # number of overall (read+write) accesses
system.cpu00.dcache.ReadReq_miss_rate::cpu00.data     0.093080                       # miss rate for ReadReq accesses
system.cpu00.dcache.ReadReq_miss_rate::total     0.093080                       # miss rate for ReadReq accesses
system.cpu00.dcache.WriteReq_miss_rate::cpu00.data     0.317272                       # miss rate for WriteReq accesses
system.cpu00.dcache.WriteReq_miss_rate::total     0.317272                       # miss rate for WriteReq accesses
system.cpu00.dcache.LoadLockedReq_miss_rate::cpu00.data     0.299246                       # miss rate for LoadLockedReq accesses
system.cpu00.dcache.LoadLockedReq_miss_rate::total     0.299246                       # miss rate for LoadLockedReq accesses
system.cpu00.dcache.StoreCondReq_miss_rate::cpu00.data     0.008889                       # miss rate for StoreCondReq accesses
system.cpu00.dcache.StoreCondReq_miss_rate::total     0.008889                       # miss rate for StoreCondReq accesses
system.cpu00.dcache.demand_miss_rate::cpu00.data     0.191767                       # miss rate for demand accesses
system.cpu00.dcache.demand_miss_rate::total     0.191767                       # miss rate for demand accesses
system.cpu00.dcache.overall_miss_rate::cpu00.data     0.191767                       # miss rate for overall accesses
system.cpu00.dcache.overall_miss_rate::total     0.191767                       # miss rate for overall accesses
system.cpu00.dcache.ReadReq_avg_miss_latency::cpu00.data 34887.403896                       # average ReadReq miss latency
system.cpu00.dcache.ReadReq_avg_miss_latency::total 34887.403896                       # average ReadReq miss latency
system.cpu00.dcache.WriteReq_avg_miss_latency::cpu00.data 145321.077357                       # average WriteReq miss latency
system.cpu00.dcache.WriteReq_avg_miss_latency::total 145321.077357                       # average WriteReq miss latency
system.cpu00.dcache.LoadLockedReq_avg_miss_latency::cpu00.data  9795.327731                       # average LoadLockedReq miss latency
system.cpu00.dcache.LoadLockedReq_avg_miss_latency::total  9795.327731                       # average LoadLockedReq miss latency
system.cpu00.dcache.StoreCondReq_avg_miss_latency::cpu00.data 36571.500000                       # average StoreCondReq miss latency
system.cpu00.dcache.StoreCondReq_avg_miss_latency::total 36571.500000                       # average StoreCondReq miss latency
system.cpu00.dcache.demand_avg_miss_latency::cpu00.data 115313.742100                       # average overall miss latency
system.cpu00.dcache.demand_avg_miss_latency::total 115313.742100                       # average overall miss latency
system.cpu00.dcache.overall_avg_miss_latency::cpu00.data 115313.742100                       # average overall miss latency
system.cpu00.dcache.overall_avg_miss_latency::total 115313.742100                       # average overall miss latency
system.cpu00.dcache.blocked_cycles::no_mshrs       162578                       # number of cycles access was blocked
system.cpu00.dcache.blocked_cycles::no_targets            0                       # number of cycles access was blocked
system.cpu00.dcache.blocked::no_mshrs            3525                       # number of cycles access was blocked
system.cpu00.dcache.blocked::no_targets             0                       # number of cycles access was blocked
system.cpu00.dcache.avg_blocked_cycles::no_mshrs    46.121418                       # average number of cycles each access was blocked
system.cpu00.dcache.avg_blocked_cycles::no_targets          nan                       # average number of cycles each access was blocked
system.cpu00.dcache.fast_writes                     0                       # number of fast writes performed
system.cpu00.dcache.cache_copies                    0                       # number of cache copies performed
system.cpu00.dcache.writebacks::writebacks        12788                       # number of writebacks
system.cpu00.dcache.writebacks::total           12788                       # number of writebacks
system.cpu00.dcache.ReadReq_mshr_hits::cpu00.data         4388                       # number of ReadReq MSHR hits
system.cpu00.dcache.ReadReq_mshr_hits::total         4388                       # number of ReadReq MSHR hits
system.cpu00.dcache.WriteReq_mshr_hits::cpu00.data        29818                       # number of WriteReq MSHR hits
system.cpu00.dcache.WriteReq_mshr_hits::total        29818                       # number of WriteReq MSHR hits
system.cpu00.dcache.LoadLockedReq_mshr_hits::cpu00.data          168                       # number of LoadLockedReq MSHR hits
system.cpu00.dcache.LoadLockedReq_mshr_hits::total          168                       # number of LoadLockedReq MSHR hits
system.cpu00.dcache.demand_mshr_hits::cpu00.data        34206                       # number of demand (read+write) MSHR hits
system.cpu00.dcache.demand_mshr_hits::total        34206                       # number of demand (read+write) MSHR hits
system.cpu00.dcache.overall_mshr_hits::cpu00.data        34206                       # number of overall MSHR hits
system.cpu00.dcache.overall_mshr_hits::total        34206                       # number of overall MSHR hits
system.cpu00.dcache.ReadReq_mshr_misses::cpu00.data         9628                       # number of ReadReq MSHR misses
system.cpu00.dcache.ReadReq_mshr_misses::total         9628                       # number of ReadReq MSHR misses
system.cpu00.dcache.WriteReq_mshr_misses::cpu00.data         7748                       # number of WriteReq MSHR misses
system.cpu00.dcache.WriteReq_mshr_misses::total         7748                       # number of WriteReq MSHR misses
system.cpu00.dcache.LoadLockedReq_mshr_misses::cpu00.data          189                       # number of LoadLockedReq MSHR misses
system.cpu00.dcache.LoadLockedReq_mshr_misses::total          189                       # number of LoadLockedReq MSHR misses
system.cpu00.dcache.StoreCondReq_mshr_misses::cpu00.data            8                       # number of StoreCondReq MSHR misses
system.cpu00.dcache.StoreCondReq_mshr_misses::total            8                       # number of StoreCondReq MSHR misses
system.cpu00.dcache.demand_mshr_misses::cpu00.data        17376                       # number of demand (read+write) MSHR misses
system.cpu00.dcache.demand_mshr_misses::total        17376                       # number of demand (read+write) MSHR misses
system.cpu00.dcache.overall_mshr_misses::cpu00.data        17376                       # number of overall MSHR misses
system.cpu00.dcache.overall_mshr_misses::total        17376                       # number of overall MSHR misses
system.cpu00.dcache.ReadReq_mshr_miss_latency::cpu00.data    276434100                       # number of ReadReq MSHR miss cycles
system.cpu00.dcache.ReadReq_mshr_miss_latency::total    276434100                       # number of ReadReq MSHR miss cycles
system.cpu00.dcache.WriteReq_mshr_miss_latency::cpu00.data   1158280793                       # number of WriteReq MSHR miss cycles
system.cpu00.dcache.WriteReq_mshr_miss_latency::total   1158280793                       # number of WriteReq MSHR miss cycles
system.cpu00.dcache.LoadLockedReq_mshr_miss_latency::cpu00.data      1631205                       # number of LoadLockedReq MSHR miss cycles
system.cpu00.dcache.LoadLockedReq_mshr_miss_latency::total      1631205                       # number of LoadLockedReq MSHR miss cycles
system.cpu00.dcache.StoreCondReq_mshr_miss_latency::cpu00.data       356427                       # number of StoreCondReq MSHR miss cycles
system.cpu00.dcache.StoreCondReq_mshr_miss_latency::total       356427                       # number of StoreCondReq MSHR miss cycles
system.cpu00.dcache.demand_mshr_miss_latency::cpu00.data   1434714893                       # number of demand (read+write) MSHR miss cycles
system.cpu00.dcache.demand_mshr_miss_latency::total   1434714893                       # number of demand (read+write) MSHR miss cycles
system.cpu00.dcache.overall_mshr_miss_latency::cpu00.data   1434714893                       # number of overall MSHR miss cycles
system.cpu00.dcache.overall_mshr_miss_latency::total   1434714893                       # number of overall MSHR miss cycles
system.cpu00.dcache.ReadReq_mshr_miss_rate::cpu00.data     0.063939                       # mshr miss rate for ReadReq accesses
system.cpu00.dcache.ReadReq_mshr_miss_rate::total     0.063939                       # mshr miss rate for ReadReq accesses
system.cpu00.dcache.WriteReq_mshr_miss_rate::cpu00.data     0.065438                       # mshr miss rate for WriteReq accesses
system.cpu00.dcache.WriteReq_mshr_miss_rate::total     0.065438                       # mshr miss rate for WriteReq accesses
system.cpu00.dcache.LoadLockedReq_mshr_miss_rate::cpu00.data     0.158424                       # mshr miss rate for LoadLockedReq accesses
system.cpu00.dcache.LoadLockedReq_mshr_miss_rate::total     0.158424                       # mshr miss rate for LoadLockedReq accesses
system.cpu00.dcache.StoreCondReq_mshr_miss_rate::cpu00.data     0.007111                       # mshr miss rate for StoreCondReq accesses
system.cpu00.dcache.StoreCondReq_mshr_miss_rate::total     0.007111                       # mshr miss rate for StoreCondReq accesses
system.cpu00.dcache.demand_mshr_miss_rate::cpu00.data     0.064599                       # mshr miss rate for demand accesses
system.cpu00.dcache.demand_mshr_miss_rate::total     0.064599                       # mshr miss rate for demand accesses
system.cpu00.dcache.overall_mshr_miss_rate::cpu00.data     0.064599                       # mshr miss rate for overall accesses
system.cpu00.dcache.overall_mshr_miss_rate::total     0.064599                       # mshr miss rate for overall accesses
system.cpu00.dcache.ReadReq_avg_mshr_miss_latency::cpu00.data 28711.476942                       # average ReadReq mshr miss latency
system.cpu00.dcache.ReadReq_avg_mshr_miss_latency::total 28711.476942                       # average ReadReq mshr miss latency
system.cpu00.dcache.WriteReq_avg_mshr_miss_latency::cpu00.data 149494.165333                       # average WriteReq mshr miss latency
system.cpu00.dcache.WriteReq_avg_mshr_miss_latency::total 149494.165333                       # average WriteReq mshr miss latency
[...]
system.tol2bus.pkt_count_system.cpu06.dcache.mem_side::system.l2.cpu_side         2515                       # Packet count per connected master and slave (bytes)
system.tol2bus.pkt_count_system.cpu07.icache.mem_side::system.l2.cpu_side         2240                       # Packet count per connected master and slave (bytes)
system.tol2bus.pkt_count_system.cpu07.dcache.mem_side::system.l2.cpu_side         4620                       # Packet count per connected master and slave (bytes)
system.tol2bus.pkt_count_system.cpu08.icache.mem_side::system.l2.cpu_side         2335                       # Packet count per connected master and slave (bytes)
system.tol2bus.pkt_count_system.cpu08.dcache.mem_side::system.l2.cpu_side         3613                       # Packet count per connected master and slave (bytes)
system.tol2bus.pkt_count_system.cpu09.icache.mem_side::system.l2.cpu_side         1229                       # Packet count per connected master and slave (bytes)
system.tol2bus.pkt_count_system.cpu09.dcache.mem_side::system.l2.cpu_side         1546                       # Packet count per connected master and slave (bytes)
system.tol2bus.pkt_count_system.cpu10.icache.mem_side::system.l2.cpu_side         1004                       # Packet count per connected master and slave (bytes)
system.tol2bus.pkt_count_system.cpu10.dcache.mem_side::system.l2.cpu_side         1541                       # Packet count per connected master and slave (bytes)
system.tol2bus.pkt_count_system.cpu11.icache.mem_side::system.l2.cpu_side         1128                       # Packet count per connected master and slave (bytes)
system.tol2bus.pkt_count_system.cpu11.dcache.mem_side::system.l2.cpu_side         1561                       # Packet count per connected master and slave (bytes)
system.tol2bus.pkt_count_system.cpu12.icache.mem_side::system.l2.cpu_side         2493                       # Packet count per connected master and slave (bytes)
system.tol2bus.pkt_count_system.cpu12.dcache.mem_side::system.l2.cpu_side         4157                       # Packet count per connected master and slave (bytes)
system.tol2bus.pkt_count_system.cpu13.icache.mem_side::system.l2.cpu_side         2449                       # Packet count per connected master and slave (bytes)
system.tol2bus.pkt_count_system.cpu13.dcache.mem_side::system.l2.cpu_side         4164                       # Packet count per connected master and slave (bytes)
system.tol2bus.pkt_count_system.cpu14.icache.mem_side::system.l2.cpu_side          920                       # Packet count per connected master and slave (bytes)
system.tol2bus.pkt_count_system.cpu14.dcache.mem_side::system.l2.cpu_side         1582                       # Packet count per connected master and slave (bytes)
system.tol2bus.pkt_count_system.cpu15.icache.mem_side::system.l2.cpu_side         1539                       # Packet count per connected master and slave (bytes)
system.tol2bus.pkt_count_system.cpu15.dcache.mem_side::system.l2.cpu_side         2418                       # Packet count per connected master and slave (bytes)
system.tol2bus.pkt_count::total                148588                       # Packet count per connected master and slave (bytes)
system.tol2bus.pkt_size_system.cpu00.icache.mem_side::system.l2.cpu_side       979072                       # Cumulative packet size per connected master and slave (bytes)
system.tol2bus.pkt_size_system.cpu00.dcache.mem_side::system.l2.cpu_side      1917312                       # Cumulative packet size per connected master and slave (bytes)
system.tol2bus.pkt_size_system.cpu01.icache.mem_side::system.l2.cpu_side        92352                       # Cumulative packet size per connected master and slave (bytes)
system.tol2bus.pkt_size_system.cpu01.dcache.mem_side::system.l2.cpu_side       104960                       # Cumulative packet size per connected master and slave (bytes)
system.tol2bus.pkt_size_system.cpu02.icache.mem_side::system.l2.cpu_side        91200                       # Cumulative packet size per connected master and slave (bytes)
system.tol2bus.pkt_size_system.cpu02.dcache.mem_side::system.l2.cpu_side        96256                       # Cumulative packet size per connected master and slave (bytes)
system.tol2bus.pkt_size_system.cpu03.icache.mem_side::system.l2.cpu_side       110080                       # Cumulative packet size per connected master and slave (bytes)
system.tol2bus.pkt_size_system.cpu03.dcache.mem_side::system.l2.cpu_side       137152                       # Cumulative packet size per connected master and slave (bytes)
system.tol2bus.pkt_size_system.cpu04.icache.mem_side::system.l2.cpu_side        71104                       # Cumulative packet size per connected master and slave (bytes)
system.tol2bus.pkt_size_system.cpu04.dcache.mem_side::system.l2.cpu_side        75776                       # Cumulative packet size per connected master and slave (bytes)
system.tol2bus.pkt_size_system.cpu05.icache.mem_side::system.l2.cpu_side        62400                       # Cumulative packet size per connected master and slave (bytes)
system.tol2bus.pkt_size_system.cpu05.dcache.mem_side::system.l2.cpu_side        55360                       # Cumulative packet size per connected master and slave (bytes)
system.tol2bus.pkt_size_system.cpu06.icache.mem_side::system.l2.cpu_side        84544                       # Cumulative packet size per connected master and slave (bytes)
system.tol2bus.pkt_size_system.cpu06.dcache.mem_side::system.l2.cpu_side        80320                       # Cumulative packet size per connected master and slave (bytes)
system.tol2bus.pkt_size_system.cpu07.icache.mem_side::system.l2.cpu_side        85824                       # Cumulative packet size per connected master and slave (bytes)
system.tol2bus.pkt_size_system.cpu07.dcache.mem_side::system.l2.cpu_side       122304                       # Cumulative packet size per connected master and slave (bytes)
system.tol2bus.pkt_size_system.cpu08.icache.mem_side::system.l2.cpu_side        89408                       # Cumulative packet size per connected master and slave (bytes)
system.tol2bus.pkt_size_system.cpu08.dcache.mem_side::system.l2.cpu_side       107392                       # Cumulative packet size per connected master and slave (bytes)
system.tol2bus.pkt_size_system.cpu09.icache.mem_side::system.l2.cpu_side        43264                       # Cumulative packet size per connected master and slave (bytes)
system.tol2bus.pkt_size_system.cpu09.dcache.mem_side::system.l2.cpu_side        46528                       # Cumulative packet size per connected master and slave (bytes)
system.tol2bus.pkt_size_system.cpu10.icache.mem_side::system.l2.cpu_side        34560                       # Cumulative packet size per connected master and slave (bytes)
system.tol2bus.pkt_size_system.cpu10.dcache.mem_side::system.l2.cpu_side        52416                       # Cumulative packet size per connected master and slave (bytes)
system.tol2bus.pkt_size_system.cpu11.icache.mem_side::system.l2.cpu_side        39488                       # Cumulative packet size per connected master and slave (bytes)
system.tol2bus.pkt_size_system.cpu11.dcache.mem_side::system.l2.cpu_side        47424                       # Cumulative packet size per connected master and slave (bytes)
system.tol2bus.pkt_size_system.cpu12.icache.mem_side::system.l2.cpu_side        96064                       # Cumulative packet size per connected master and slave (bytes)
system.tol2bus.pkt_size_system.cpu12.dcache.mem_side::system.l2.cpu_side       116480                       # Cumulative packet size per connected master and slave (bytes)
system.tol2bus.pkt_size_system.cpu13.icache.mem_side::system.l2.cpu_side        94144                       # Cumulative packet size per connected master and slave (bytes)
system.tol2bus.pkt_size_system.cpu13.dcache.mem_side::system.l2.cpu_side       108544                       # Cumulative packet size per connected master and slave (bytes)
system.tol2bus.pkt_size_system.cpu14.icache.mem_side::system.l2.cpu_side        31168                       # Cumulative packet size per connected master and slave (bytes)
system.tol2bus.pkt_size_system.cpu14.dcache.mem_side::system.l2.cpu_side        55424                       # Cumulative packet size per connected master and slave (bytes)
system.tol2bus.pkt_size_system.cpu15.icache.mem_side::system.l2.cpu_side        55808                       # Cumulative packet size per connected master and slave (bytes)
system.tol2bus.pkt_size_system.cpu15.dcache.mem_side::system.l2.cpu_side        65152                       # Cumulative packet size per connected master and slave (bytes)
system.tol2bus.pkt_size::total                5249280                       # Cumulative packet size per connected master and slave (bytes)
system.tol2bus.snoops                            7956                       # Total snoops (count)
system.tol2bus.snoop_fanout::samples            57691                       # Request fanout histogram
system.tol2bus.snoop_fanout::mean            1.943284                       # Request fanout histogram
system.tol2bus.snoop_fanout::stdev           3.640255                       # Request fanout histogram
system.tol2bus.snoop_fanout::underflows             0      0.00%      0.00% # Request fanout histogram
system.tol2bus.snoop_fanout::0                  35729     61.93%     61.93% # Request fanout histogram
system.tol2bus.snoop_fanout::1                   7265     12.59%     74.52% # Request fanout histogram
system.tol2bus.snoop_fanout::2                   2045      3.54%     78.07% # Request fanout histogram
system.tol2bus.snoop_fanout::3                   1438      2.49%     80.56% # Request fanout histogram
system.tol2bus.snoop_fanout::4                   1299      2.25%     82.81% # Request fanout histogram
system.tol2bus.snoop_fanout::5                   1282      2.22%     85.04% # Request fanout histogram
system.tol2bus.snoop_fanout::6                   1205      2.09%     87.12% # Request fanout histogram
system.tol2bus.snoop_fanout::7                   1128      1.96%     89.08% # Request fanout histogram
system.tol2bus.snoop_fanout::8                   1016      1.76%     90.84% # Request fanout histogram
system.tol2bus.snoop_fanout::9                    923      1.60%     92.44% # Request fanout histogram
system.tol2bus.snoop_fanout::10                   845      1.46%     93.91% # Request fanout histogram
system.tol2bus.snoop_fanout::11                   886      1.54%     95.44% # Request fanout histogram
system.tol2bus.snoop_fanout::12                   774      1.34%     96.78% # Request fanout histogram
system.tol2bus.snoop_fanout::13                   681      1.18%     97.96% # Request fanout histogram
system.tol2bus.snoop_fanout::14                   690      1.20%     99.16% # Request fanout histogram
system.tol2bus.snoop_fanout::15                   483      0.84%    100.00% # Request fanout histogram
system.tol2bus.snoop_fanout::16                     2      0.00%    100.00% # Request fanout histogram
system.tol2bus.snoop_fanout::17                     0      0.00%    100.00% # Request fanout histogram
system.tol2bus.snoop_fanout::18                     0      0.00%    100.00% # Request fanout histogram
system.tol2bus.snoop_fanout::19                     0      0.00%    100.00% # Request fanout histogram
system.tol2bus.snoop_fanout::20                     0      0.00%    100.00% # Request fanout histogram
system.tol2bus.snoop_fanout::21                     0      0.00%    100.00% # Request fanout histogram
system.tol2bus.snoop_fanout::22                     0      0.00%    100.00% # Request fanout histogram
system.tol2bus.snoop_fanout::23                     0      0.00%    100.00% # Request fanout histogram
system.tol2bus.snoop_fanout::24                     0      0.00%    100.00% # Request fanout histogram
system.tol2bus.snoop_fanout::25                     0      0.00%    100.00% # Request fanout histogram
system.tol2bus.snoop_fanout::26                     0      0.00%    100.00% # Request fanout histogram
system.tol2bus.snoop_fanout::27                     0      0.00%    100.00% # Request fanout histogram
system.tol2bus.snoop_fanout::28                     0      0.00%    100.00% # Request fanout histogram
system.tol2bus.snoop_fanout::29                     0      0.00%    100.00% # Request fanout histogram
system.tol2bus.snoop_fanout::30                     0      0.00%    100.00% # Request fanout histogram
system.tol2bus.snoop_fanout::31                     0      0.00%    100.00% # Request fanout histogram
system.tol2bus.snoop_fanout::32                     0      0.00%    100.00% # Request fanout histogram
system.tol2bus.snoop_fanout::overflows              0      0.00%    100.00% # Request fanout histogram
system.tol2bus.snoop_fanout::min_value              0                       # Request fanout histogram
system.tol2bus.snoop_fanout::max_value             16                       # Request fanout histogram
system.tol2bus.snoop_fanout::total              57691                       # Request fanout histogram
system.tol2bus.reqLayer0.occupancy          192465282                       # Layer occupancy (ticks)
system.tol2bus.reqLayer0.utilization             14.9                       # Layer utilization (%)
system.tol2bus.respLayer0.occupancy          27900712                       # Layer occupancy (ticks)
system.tol2bus.respLayer0.utilization             2.2                       # Layer utilization (%)
system.tol2bus.respLayer1.occupancy          61348120                       # Layer occupancy (ticks)
system.tol2bus.respLayer1.utilization             4.8                       # Layer utilization (%)
system.tol2bus.respLayer2.occupancy           3466992                       # Layer occupancy (ticks)
system.tol2bus.respLayer2.utilization             0.3                       # Layer utilization (%)
system.tol2bus.respLayer3.occupancy           5350892                       # Layer occupancy (ticks)
system.tol2bus.respLayer3.utilization             0.4                       # Layer utilization (%)
system.tol2bus.respLayer4.occupancy           3399177                       # Layer occupancy (ticks)
system.tol2bus.respLayer4.utilization             0.3                       # Layer utilization (%)
system.tol2bus.respLayer5.occupancy           4737143                       # Layer occupancy (ticks)
system.tol2bus.respLayer5.utilization             0.4                       # Layer utilization (%)
system.tol2bus.respLayer6.occupancy           3910619                       # Layer occupancy (ticks)
system.tol2bus.respLayer6.utilization             0.3                       # Layer utilization (%)
system.tol2bus.respLayer7.occupancy           6886888                       # Layer occupancy (ticks)
system.tol2bus.respLayer7.utilization             0.5                       # Layer utilization (%)
system.tol2bus.respLayer8.occupancy           2812578                       # Layer occupancy (ticks)
system.tol2bus.respLayer8.utilization             0.2                       # Layer utilization (%)
system.tol2bus.respLayer9.occupancy           4035492                       # Layer occupancy (ticks)
system.tol2bus.respLayer9.utilization             0.3                       # Layer utilization (%)
system.tol2bus.respLayer10.occupancy          2605586                       # Layer occupancy (ticks)
system.tol2bus.respLayer10.utilization            0.2                       # Layer utilization (%)
system.tol2bus.respLayer11.occupancy          2722446                       # Layer occupancy (ticks)
system.tol2bus.respLayer11.utilization            0.2                       # Layer utilization (%)
system.tol2bus.respLayer12.occupancy          3246993                       # Layer occupancy (ticks)
system.tol2bus.respLayer12.utilization            0.3                       # Layer utilization (%)
system.tol2bus.respLayer13.occupancy          3387668                       # Layer occupancy (ticks)
system.tol2bus.respLayer13.utilization            0.3                       # Layer utilization (%)
system.tol2bus.respLayer14.occupancy          3213034                       # Layer occupancy (ticks)
system.tol2bus.respLayer14.utilization            0.2                       # Layer utilization (%)
system.tol2bus.respLayer15.occupancy          6697631                       # Layer occupancy (ticks)
system.tol2bus.respLayer15.utilization            0.5                       # Layer utilization (%)
system.tol2bus.respLayer16.occupancy          3349335                       # Layer occupancy (ticks)
system.tol2bus.respLayer16.utilization            0.3                       # Layer utilization (%)
system.tol2bus.respLayer17.occupancy          5097047                       # Layer occupancy (ticks)
system.tol2bus.respLayer17.utilization            0.4                       # Layer utilization (%)
system.tol2bus.respLayer18.occupancy          1995926                       # Layer occupancy (ticks)
system.tol2bus.respLayer18.utilization            0.2                       # Layer utilization (%)
system.tol2bus.respLayer19.occupancy          2119108                       # Layer occupancy (ticks)
system.tol2bus.respLayer19.utilization            0.2                       # Layer utilization (%)
system.tol2bus.respLayer20.occupancy          1677322                       # Layer occupancy (ticks)
system.tol2bus.respLayer20.utilization            0.1                       # Layer utilization (%)
system.tol2bus.respLayer21.occupancy          2060122                       # Layer occupancy (ticks)
system.tol2bus.respLayer21.utilization            0.2                       # Layer utilization (%)
system.tol2bus.respLayer22.occupancy          1835979                       # Layer occupancy (ticks)
system.tol2bus.respLayer22.utilization            0.1                       # Layer utilization (%)
system.tol2bus.respLayer23.occupancy          2145462                       # Layer occupancy (ticks)
system.tol2bus.respLayer23.utilization            0.2                       # Layer utilization (%)
system.tol2bus.respLayer24.occupancy          3536120                       # Layer occupancy (ticks)
system.tol2bus.respLayer24.utilization            0.3                       # Layer utilization (%)
system.tol2bus.respLayer25.occupancy          6077502                       # Layer occupancy (ticks)
system.tol2bus.respLayer25.utilization            0.5                       # Layer utilization (%)
system.tol2bus.respLayer26.occupancy          3474782                       # Layer occupancy (ticks)
system.tol2bus.respLayer26.utilization            0.3                       # Layer utilization (%)
system.tol2bus.respLayer27.occupancy          6004480                       # Layer occupancy (ticks)
system.tol2bus.respLayer27.utilization            0.5                       # Layer utilization (%)
system.tol2bus.respLayer28.occupancy          1554548                       # Layer occupancy (ticks)
system.tol2bus.respLayer28.utilization            0.1                       # Layer utilization (%)
system.tol2bus.respLayer29.occupancy          2052875                       # Layer occupancy (ticks)
system.tol2bus.respLayer29.utilization            0.2                       # Layer utilization (%)
system.tol2bus.respLayer30.occupancy          2386934                       # Layer occupancy (ticks)
system.tol2bus.respLayer30.utilization            0.2                       # Layer utilization (%)
system.tol2bus.respLayer31.occupancy          3097429                       # Layer occupancy (ticks)
system.tol2bus.respLayer31.utilization            0.2                       # Layer utilization (%)

---------- End Simulation Statistics   ----------
