
---------- Begin Simulation Statistics ----------
sim_seconds                                  0.001349                       # Number of seconds simulated
sim_ticks                                  1348943652                       # Number of ticks simulated
final_tick                                 1348943652                       # Number of ticks from beginning of simulation (restored from checkpoints and never reset)
sim_freq                                 1000000000000                       # Frequency of simulated ticks
host_inst_rate                                 231503                       # Simulator instruction rate (inst/s)
host_op_rate                                   231503                       # Simulator op (including micro ops) rate (op/s)
host_tick_rate                              111229848                       # Simulator tick rate (ticks/s)
host_mem_usage                                 695112                       # Number of bytes of host memory used
host_seconds                                    12.13                       # Real time elapsed on the host
sim_insts                                     2807554                       # Number of instructions simulated
sim_ops                                       2807554                       # Number of ops (including micro ops) simulated
system.voltage_domain.voltage                       1                       # Voltage in Volts
system.clk_domain.clock                          1000                       # Clock period in ticks
system.mem_ctrls.bytes_read::cpu00.inst        123456                       # Number of bytes read from this memory
system.mem_ctrls.bytes_read::cpu00.data        378304                       # Number of bytes read from this memory
system.mem_ctrls.bytes_read::cpu01.inst         11904                       # Number of bytes read from this memory
system.mem_ctrls.bytes_read::cpu01.data          7232                       # Number of bytes read from this memory
system.mem_ctrls.bytes_read::cpu02.inst          4480                       # Number of bytes read from this memory
system.mem_ctrls.bytes_read::cpu02.data          5568                       # Number of bytes read from this memory
system.mem_ctrls.bytes_read::cpu03.inst           640                       # Number of bytes read from this memory
system.mem_ctrls.bytes_read::cpu03.data          5120                       # Number of bytes read from this memory
system.mem_ctrls.bytes_read::cpu04.inst            64                       # Number of bytes read from this memory
system.mem_ctrls.bytes_read::cpu04.data          5440                       # Number of bytes read from this memory
system.mem_ctrls.bytes_read::cpu05.inst          1536                       # Number of bytes read from this memory
system.mem_ctrls.bytes_read::cpu05.data          6720                       # Number of bytes read from this memory
system.mem_ctrls.bytes_read::cpu06.inst           256                       # Number of bytes read from this memory
system.mem_ctrls.bytes_read::cpu06.data          5760                       # Number of bytes read from this memory
system.mem_ctrls.bytes_read::cpu07.inst          1536                       # Number of bytes read from this memory
system.mem_ctrls.bytes_read::cpu07.data          5760                       # Number of bytes read from this memory
system.mem_ctrls.bytes_read::cpu08.inst           704                       # Number of bytes read from this memory
system.mem_ctrls.bytes_read::cpu08.data          6848                       # Number of bytes read from this memory
system.mem_ctrls.bytes_read::cpu09.inst           320                       # Number of bytes read from this memory
system.mem_ctrls.bytes_read::cpu09.data          4608                       # Number of bytes read from this memory
system.mem_ctrls.bytes_read::cpu10.inst          4736                       # Number of bytes read from this memory
system.mem_ctrls.bytes_read::cpu10.data          5888                       # Number of bytes read from this memory
system.mem_ctrls.bytes_read::cpu11.inst           640                       # Number of bytes read from this memory
system.mem_ctrls.bytes_read::cpu11.data          6080                       # Number of bytes read from this memory
system.mem_ctrls.bytes_read::cpu12.inst          1088                       # Number of bytes read from this memory
system.mem_ctrls.bytes_read::cpu12.data          6336                       # Number of bytes read from this memory
system.mem_ctrls.bytes_read::cpu13.inst           448                       # Number of bytes read from this memory
system.mem_ctrls.bytes_read::cpu13.data          6656                       # Number of bytes read from this memory
system.mem_ctrls.bytes_read::cpu14.inst          3072                       # Number of bytes read from this memory
system.mem_ctrls.bytes_read::cpu14.data          5696                       # Number of bytes read from this memory
system.mem_ctrls.bytes_read::cpu15.inst           576                       # Number of bytes read from this memory
system.mem_ctrls.bytes_read::cpu15.data          6720                       # Number of bytes read from this memory
system.mem_ctrls.bytes_read::total             624192                       # Number of bytes read from this memory
system.mem_ctrls.bytes_inst_read::cpu00.inst       123456                       # Number of instructions bytes read from this memory
system.mem_ctrls.bytes_inst_read::cpu01.inst        11904                       # Number of instructions bytes read from this memory
system.mem_ctrls.bytes_inst_read::cpu02.inst         4480                       # Number of instructions bytes read from this memory
system.mem_ctrls.bytes_inst_read::cpu03.inst          640                       # Number of instructions bytes read from this memory
system.mem_ctrls.bytes_inst_read::cpu04.inst           64                       # Number of instructions bytes read from this memory
system.mem_ctrls.bytes_inst_read::cpu05.inst         1536                       # Number of instructions bytes read from this memory
system.mem_ctrls.bytes_inst_read::cpu06.inst          256                       # Number of instructions bytes read from this memory
system.mem_ctrls.bytes_inst_read::cpu07.inst         1536                       # Number of instructions bytes read from this memory
system.mem_ctrls.bytes_inst_read::cpu08.inst          704                       # Number of instructions bytes read from this memory
system.mem_ctrls.bytes_inst_read::cpu09.inst          320                       # Number of instructions bytes read from this memory
system.mem_ctrls.bytes_inst_read::cpu10.inst         4736                       # Number of instructions bytes read from this memory
system.mem_ctrls.bytes_inst_read::cpu11.inst          640                       # Number of instructions bytes read from this memory
system.mem_ctrls.bytes_inst_read::cpu12.inst         1088                       # Number of instructions bytes read from this memory
system.mem_ctrls.bytes_inst_read::cpu13.inst          448                       # Number of instructions bytes read from this memory
system.mem_ctrls.bytes_inst_read::cpu14.inst         3072                       # Number of instructions bytes read from this memory
system.mem_ctrls.bytes_inst_read::cpu15.inst          576                       # Number of instructions bytes read from this memory
system.mem_ctrls.bytes_inst_read::total        155456                       # Number of instructions bytes read from this memory
system.mem_ctrls.bytes_written::writebacks        75520                       # Number of bytes written to this memory
system.mem_ctrls.bytes_written::total           75520                       # Number of bytes written to this memory
system.mem_ctrls.num_reads::cpu00.inst           1929                       # Number of read requests responded to by this memory
system.mem_ctrls.num_reads::cpu00.data           5911                       # Number of read requests responded to by this memory
system.mem_ctrls.num_reads::cpu01.inst            186                       # Number of read requests responded to by this memory
system.mem_ctrls.num_reads::cpu01.data            113                       # Number of read requests responded to by this memory
system.mem_ctrls.num_reads::cpu02.inst             70                       # Number of read requests responded to by this memory
system.mem_ctrls.num_reads::cpu02.data             87                       # Number of read requests responded to by this memory
system.mem_ctrls.num_reads::cpu03.inst             10                       # Number of read requests responded to by this memory
system.mem_ctrls.num_reads::cpu03.data             80                       # Number of read requests responded to by this memory
system.mem_ctrls.num_reads::cpu04.inst              1                       # Number of read requests responded to by this memory
system.mem_ctrls.num_reads::cpu04.data             85                       # Number of read requests responded to by this memory
system.mem_ctrls.num_reads::cpu05.inst             24                       # Number of read requests responded to by this memory
system.mem_ctrls.num_reads::cpu05.data            105                       # Number of read requests responded to by this memory
system.mem_ctrls.num_reads::cpu06.inst              4                       # Number of read requests responded to by this memory
system.mem_ctrls.num_reads::cpu06.data             90                       # Number of read requests responded to by this memory
system.mem_ctrls.num_reads::cpu07.inst             24                       # Number of read requests responded to by this memory
system.mem_ctrls.num_reads::cpu07.data             90                       # Number of read requests responded to by this memory
system.mem_ctrls.num_reads::cpu08.inst             11                       # Number of read requests responded to by this memory
system.mem_ctrls.num_reads::cpu08.data            107                       # Number of read requests responded to by this memory
system.mem_ctrls.num_reads::cpu09.inst              5                       # Number of read requests responded to by this memory
system.mem_ctrls.num_reads::cpu09.data             72                       # Number of read requests responded to by this memory
system.mem_ctrls.num_reads::cpu10.inst             74                       # Number of read requests responded to by this memory
system.mem_ctrls.num_reads::cpu10.data             92                       # Number of read requests responded to by this memory
system.mem_ctrls.num_reads::cpu11.inst             10                       # Number of read requests responded to by this memory
system.mem_ctrls.num_reads::cpu11.data             95                       # Number of read requests responded to by this memory
system.mem_ctrls.num_reads::cpu12.inst             17                       # Number of read requests responded to by this memory
system.mem_ctrls.num_reads::cpu12.data             99                       # Number of read requests responded to by this memory
system.mem_ctrls.num_reads::cpu13.inst              7                       # Number of read requests responded to by this memory
system.mem_ctrls.num_reads::cpu13.data            104                       # Number of read requests responded to by this memory
system.mem_ctrls.num_reads::cpu14.inst             48                       # Number of read requests responded to by this memory
system.mem_ctrls.num_reads::cpu14.data             89                       # Number of read requests responded to by this memory
system.mem_ctrls.num_reads::cpu15.inst              9                       # Number of read requests responded to by this memory
system.mem_ctrls.num_reads::cpu15.data            105                       # Number of read requests responded to by this memory
system.mem_ctrls.num_reads::total                9753                       # Number of read requests responded to by this memory
system.mem_ctrls.num_writes::writebacks          1180                       # Number of write requests responded to by this memory
system.mem_ctrls.num_writes::total               1180                       # Number of write requests responded to by this memory
system.mem_ctrls.bw_read::cpu00.inst         91520502                       # Total read bandwidth from this memory (bytes/s)
system.mem_ctrls.bw_read::cpu00.data        280444627                       # Total read bandwidth from this memory (bytes/s)
system.mem_ctrls.bw_read::cpu01.inst          8824683                       # Total read bandwidth from this memory (bytes/s)
system.mem_ctrls.bw_read::cpu01.data          5361232                       # Total read bandwidth from this memory (bytes/s)
system.mem_ctrls.bw_read::cpu02.inst          3321117                       # Total read bandwidth from this memory (bytes/s)
system.mem_ctrls.bw_read::cpu02.data          4127674                       # Total read bandwidth from this memory (bytes/s)
system.mem_ctrls.bw_read::cpu03.inst           474445                       # Total read bandwidth from this memory (bytes/s)
system.mem_ctrls.bw_read::cpu03.data          3795563                       # Total read bandwidth from this memory (bytes/s)
system.mem_ctrls.bw_read::cpu04.inst            47445                       # Total read bandwidth from this memory (bytes/s)
system.mem_ctrls.bw_read::cpu04.data          4032785                       # Total read bandwidth from this memory (bytes/s)
system.mem_ctrls.bw_read::cpu05.inst          1138669                       # Total read bandwidth from this memory (bytes/s)
system.mem_ctrls.bw_read::cpu05.data          4981676                       # Total read bandwidth from this memory (bytes/s)
system.mem_ctrls.bw_read::cpu06.inst           189778                       # Total read bandwidth from this memory (bytes/s)
system.mem_ctrls.bw_read::cpu06.data          4270008                       # Total read bandwidth from this memory (bytes/s)
system.mem_ctrls.bw_read::cpu07.inst          1138669                       # Total read bandwidth from this memory (bytes/s)
system.mem_ctrls.bw_read::cpu07.data          4270008                       # Total read bandwidth from this memory (bytes/s)
system.mem_ctrls.bw_read::cpu08.inst           521890                       # Total read bandwidth from this memory (bytes/s)
system.mem_ctrls.bw_read::cpu08.data          5076565                       # Total read bandwidth from this memory (bytes/s)
system.mem_ctrls.bw_read::cpu09.inst           237223                       # Total read bandwidth from this memory (bytes/s)
system.mem_ctrls.bw_read::cpu09.data          3416006                       # Total read bandwidth from this memory (bytes/s)
system.mem_ctrls.bw_read::cpu10.inst          3510895                       # Total read bandwidth from this memory (bytes/s)
system.mem_ctrls.bw_read::cpu10.data          4364897                       # Total read bandwidth from this memory (bytes/s)
system.mem_ctrls.bw_read::cpu11.inst           474445                       # Total read bandwidth from this memory (bytes/s)
system.mem_ctrls.bw_read::cpu11.data          4507231                       # Total read bandwidth from this memory (bytes/s)
system.mem_ctrls.bw_read::cpu12.inst           806557                       # Total read bandwidth from this memory (bytes/s)
system.mem_ctrls.bw_read::cpu12.data          4697009                       # Total read bandwidth from this memory (bytes/s)
system.mem_ctrls.bw_read::cpu13.inst           332112                       # Total read bandwidth from this memory (bytes/s)
system.mem_ctrls.bw_read::cpu13.data          4934231                       # Total read bandwidth from this memory (bytes/s)
system.mem_ctrls.bw_read::cpu14.inst          2277338                       # Total read bandwidth from this memory (bytes/s)
system.mem_ctrls.bw_read::cpu14.data          4222563                       # Total read bandwidth from this memory (bytes/s)
system.mem_ctrls.bw_read::cpu15.inst           427001                       # Total read bandwidth from this memory (bytes/s)
system.mem_ctrls.bw_read::cpu15.data          4981676                       # Total read bandwidth from this memory (bytes/s)
system.mem_ctrls.bw_read::total             462726519                       # Total read bandwidth from this memory (bytes/s)
system.mem_ctrls.bw_inst_read::cpu00.inst     91520502                       # Instruction read bandwidth from this memory (bytes/s)
system.mem_ctrls.bw_inst_read::cpu01.inst      8824683                       # Instruction read bandwidth from this memory (bytes/s)
system.mem_ctrls.bw_inst_read::cpu02.inst      3321117                       # Instruction read bandwidth from this memory (bytes/s)
system.mem_ctrls.bw_inst_read::cpu03.inst       474445                       # Instruction read bandwidth from this memory (bytes/s)
system.mem_ctrls.bw_inst_read::cpu04.inst        47445                       # Instruction read bandwidth from this memory (bytes/s)
system.mem_ctrls.bw_inst_read::cpu05.inst      1138669                       # Instruction read bandwidth from this memory (bytes/s)
system.mem_ctrls.bw_inst_read::cpu06.inst       189778                       # Instruction read bandwidth from this memory (bytes/s)
system.mem_ctrls.bw_inst_read::cpu07.inst      1138669                       # Instruction read bandwidth from this memory (bytes/s)
system.mem_ctrls.bw_inst_read::cpu08.inst       521890                       # Instruction read bandwidth from this memory (bytes/s)
system.mem_ctrls.bw_inst_read::cpu09.inst       237223                       # Instruction read bandwidth from this memory (bytes/s)
system.mem_ctrls.bw_inst_read::cpu10.inst      3510895                       # Instruction read bandwidth from this memory (bytes/s)
system.mem_ctrls.bw_inst_read::cpu11.inst       474445                       # Instruction read bandwidth from this memory (bytes/s)
system.mem_ctrls.bw_inst_read::cpu12.inst       806557                       # Instruction read bandwidth from this memory (bytes/s)
system.mem_ctrls.bw_inst_read::cpu13.inst       332112                       # Instruction read bandwidth from this memory (bytes/s)
system.mem_ctrls.bw_inst_read::cpu14.inst      2277338                       # Instruction read bandwidth from this memory (bytes/s)
system.mem_ctrls.bw_inst_read::cpu15.inst       427001                       # Instruction read bandwidth from this memory (bytes/s)
system.mem_ctrls.bw_inst_read::total        115242768                       # Instruction read bandwidth from this memory (bytes/s)
system.mem_ctrls.bw_write::writebacks        55984548                       # Write bandwidth from this memory (bytes/s)
system.mem_ctrls.bw_write::total             55984548                       # Write bandwidth from this memory (bytes/s)
system.mem_ctrls.bw_total::writebacks        55984548                       # Total bandwidth to/from this memory (bytes/s)
system.mem_ctrls.bw_total::cpu00.inst        91520502                       # Total bandwidth to/from this memory (bytes/s)
system.mem_ctrls.bw_total::cpu00.data       280444627                       # Total bandwidth to/from this memory (bytes/s)
system.mem_ctrls.bw_total::cpu01.inst         8824683                       # Total bandwidth to/from this memory (bytes/s)
system.mem_ctrls.bw_total::cpu01.data         5361232                       # Total bandwidth to/from this memory (bytes/s)
system.mem_ctrls.bw_total::cpu02.inst         3321117                       # Total bandwidth to/from this memory (bytes/s)
system.mem_ctrls.bw_total::cpu02.data         4127674                       # Total bandwidth to/from this memory (bytes/s)
system.mem_ctrls.bw_total::cpu03.inst          474445                       # Total bandwidth to/from this memory (bytes/s)
system.mem_ctrls.bw_total::cpu03.data         3795563                       # Total bandwidth to/from this memory (bytes/s)
system.mem_ctrls.bw_total::cpu04.inst           47445                       # Total bandwidth to/from this memory (bytes/s)
system.mem_ctrls.bw_total::cpu04.data         4032785                       # Total bandwidth to/from this memory (bytes/s)
system.mem_ctrls.bw_total::cpu05.inst         1138669                       # Total bandwidth to/from this memory (bytes/s)
system.mem_ctrls.bw_total::cpu05.data         4981676                       # Total bandwidth to/from this memory (bytes/s)
system.mem_ctrls.bw_total::cpu06.inst          189778                       # Total bandwidth to/from this memory (bytes/s)
system.mem_ctrls.bw_total::cpu06.data         4270008                       # Total bandwidth to/from this memory (bytes/s)
system.mem_ctrls.bw_total::cpu07.inst         1138669                       # Total bandwidth to/from this memory (bytes/s)
system.mem_ctrls.bw_total::cpu07.data         4270008                       # Total bandwidth to/from this memory (bytes/s)
system.mem_ctrls.bw_total::cpu08.inst          521890                       # Total bandwidth to/from this memory (bytes/s)
system.mem_ctrls.bw_total::cpu08.data         5076565                       # Total bandwidth to/from this memory (bytes/s)
system.mem_ctrls.bw_total::cpu09.inst          237223                       # Total bandwidth to/from this memory (bytes/s)
system.mem_ctrls.bw_total::cpu09.data         3416006                       # Total bandwidth to/from this memory (bytes/s)
system.mem_ctrls.bw_total::cpu10.inst         3510895                       # Total bandwidth to/from this memory (bytes/s)
system.mem_ctrls.bw_total::cpu10.data         4364897                       # Total bandwidth to/from this memory (bytes/s)
system.mem_ctrls.bw_total::cpu11.inst          474445                       # Total bandwidth to/from this memory (bytes/s)
system.mem_ctrls.bw_total::cpu11.data         4507231                       # Total bandwidth to/from this memory (bytes/s)
system.mem_ctrls.bw_total::cpu12.inst          806557                       # Total bandwidth to/from this memory (bytes/s)
system.mem_ctrls.bw_total::cpu12.data         4697009                       # Total bandwidth to/from this memory (bytes/s)
system.mem_ctrls.bw_total::cpu13.inst          332112                       # Total bandwidth to/from this memory (bytes/s)
system.mem_ctrls.bw_total::cpu13.data         4934231                       # Total bandwidth to/from this memory (bytes/s)
system.mem_ctrls.bw_total::cpu14.inst         2277338                       # Total bandwidth to/from this memory (bytes/s)
system.mem_ctrls.bw_total::cpu14.data         4222563                       # Total bandwidth to/from this memory (bytes/s)
system.mem_ctrls.bw_total::cpu15.inst          427001                       # Total bandwidth to/from this memory (bytes/s)
system.mem_ctrls.bw_total::cpu15.data         4981676                       # Total bandwidth to/from this memory (bytes/s)
system.mem_ctrls.bw_total::total            518711066                       # Total bandwidth to/from this memory (bytes/s)
system.cpu00.branchPred.lookups                132173                       # Number of BP lookups
system.cpu00.branchPred.condPredicted           73641                       # Number of conditional branches predicted
system.cpu00.branchPred.condIncorrect            5645                       # Number of conditional branches incorrect
system.cpu00.branchPred.BTBLookups              86932                       # Number of BTB lookups
system.cpu00.branchPred.BTBHits                 66205                       # Number of BTB hits
system.cpu00.branchPred.BTBCorrect                  0                       # Number of correct BTB predictions (this stat may not work properly.
system.cpu00.branchPred.BTBHitPct           76.157226                       # BTB Hit Percentage
system.cpu00.branchPred.usedRAS                 26381                       # Number of times the RAS was used to get a target.
system.cpu00.branchPred.RASInCorrect               78                       # Number of incorrect RAS predictions.
system.cpu00.branchPred.indirectLookups          3624                       # Number of indirect predictor lookups.
system.cpu00.branchPred.indirectHits             2885                       # Number of indirect target hits.
system.cpu00.branchPred.indirectMisses            739                       # Number of indirect misses.
system.cpu00.branchPredindirectMispredicted          251                       # Number of mispredicted indirect branches.
system.cpu_voltage_domain.voltage                   1                       # Voltage in Volts
system.cpu_clk_domain.clock                      1242                       # Clock period in ticks
system.cpu00.dtb.fetch_hits                         0                       # ITB hits
system.cpu00.dtb.fetch_misses                       0                       # ITB misses
system.cpu00.dtb.fetch_acv                          0                       # ITB acv
system.cpu00.dtb.fetch_accesses                     0                       # ITB accesses
system.cpu00.dtb.read_hits                     179772                       # DTB read hits
system.cpu00.dtb.read_misses                      627                       # DTB read misses
system.cpu00.dtb.read_acv                           0                       # DTB read access violations
system.cpu00.dtb.read_accesses                 180399                       # DTB read accesses
system.cpu00.dtb.write_hits                    127565                       # DTB write hits
system.cpu00.dtb.write_misses                    1082                       # DTB write misses
system.cpu00.dtb.write_acv                          0                       # DTB write access violations
system.cpu00.dtb.write_accesses                128647                       # DTB write accesses
system.cpu00.dtb.data_hits                     307337                       # DTB hits
system.cpu00.dtb.data_misses                     1709                       # DTB misses
system.cpu00.dtb.data_acv                           0                       # DTB access violations
system.cpu00.dtb.data_accesses                 309046                       # DTB accesses
system.cpu00.itb.fetch_hits                    148749                       # ITB hits
system.cpu00.itb.fetch_misses                     155                       # ITB misses
system.cpu00.itb.fetch_acv                          0                       # ITB acv
system.cpu00.itb.fetch_accesses                148904                       # ITB accesses
system.cpu00.itb.read_hits                          0                       # DTB read hits
system.cpu00.itb.read_misses                        0                       # DTB read misses
system.cpu00.itb.read_acv                           0                       # DTB read access violations
system.cpu00.itb.read_accesses                      0                       # DTB read accesses
system.cpu00.itb.write_hits                         0                       # DTB write hits
system.cpu00.itb.write_misses                       0                       # DTB write misses
system.cpu00.itb.write_acv                          0                       # DTB write access violations
system.cpu00.itb.write_accesses                     0                       # DTB write accesses
system.cpu00.itb.data_hits                          0                       # DTB hits
system.cpu00.itb.data_misses                        0                       # DTB misses
system.cpu00.itb.data_acv                           0                       # DTB access violations
system.cpu00.itb.data_accesses                      0                       # DTB accesses
system.cpu00.workload.num_syscalls               3717                       # Number of system calls
system.cpu00.numCycles                         983509                       # number of cpu cycles simulated
system.cpu00.numWorkItemsStarted                    0                       # number of work items this cpu started
system.cpu00.numWorkItemsCompleted                  0                       # number of work items this cpu completed
system.cpu00.fetch.icacheStallCycles            81376                       # Number of cycles fetch is stalled on an Icache miss
system.cpu00.fetch.Insts                      1187503                       # Number of instructions fetch has processed
system.cpu00.fetch.Branches                    132173                       # Number of branches that fetch encountered
system.cpu00.fetch.predictedBranches            95471                       # Number of branches that fetch has predicted taken
system.cpu00.fetch.Cycles                      695179                       # Number of cycles fetch has run and was not squashing or blocked
system.cpu00.fetch.SquashCycles                 12648                       # Number of cycles fetch has spent squashing
system.cpu00.fetch.MiscStallCycles                571                       # Number of cycles fetch has spent waiting on interrupts, or bad addresses, or out of MSHRs
system.cpu00.fetch.PendingTrapStallCycles         5954                       # Number of stall cycles due to pending traps
system.cpu00.fetch.IcacheWaitRetryStallCycles          582                       # Number of stall cycles due to full MSHR
system.cpu00.fetch.CacheLines                  148749                       # Number of cache lines fetched
system.cpu00.fetch.IcacheSquashes                2562                       # Number of outstanding Icache misses that were squashed
system.cpu00.fetch.rateDist::samples           789986                       # Number of instructions fetched each cycle (Total)
system.cpu00.fetch.rateDist::mean            1.503195                       # Number of instructions fetched each cycle (Total)
system.cpu00.fetch.rateDist::stdev           2.755401                       # Number of instructions fetched each cycle (Total)
system.cpu00.fetch.rateDist::underflows             0      0.00%      0.00% # Number of instructions fetched each cycle (Total)
system.cpu00.fetch.rateDist::0                 572915     72.52%     72.52% # Number of instructions fetched each cycle (Total)
system.cpu00.fetch.rateDist::1                  16357      2.07%     74.59% # Number of instructions fetched each cycle (Total)
system.cpu00.fetch.rateDist::2                  17278      2.19%     76.78% # Number of instructions fetched each cycle (Total)
system.cpu00.fetch.rateDist::3                  16798      2.13%     78.91% # Number of instructions fetched each cycle (Total)
system.cpu00.fetch.rateDist::4                  37780      4.78%     83.69% # Number of instructions fetched each cycle (Total)
system.cpu00.fetch.rateDist::5                  15691      1.99%     85.67% # Number of instructions fetched each cycle (Total)
system.cpu00.fetch.rateDist::6                  18715      2.37%     88.04% # Number of instructions fetched each cycle (Total)
system.cpu00.fetch.rateDist::7                  11285      1.43%     89.47% # Number of instructions fetched each cycle (Total)
system.cpu00.fetch.rateDist::8                  83167     10.53%    100.00% # Number of instructions fetched each cycle (Total)
system.cpu00.fetch.rateDist::overflows              0      0.00%    100.00% # Number of instructions fetched each cycle (Total)
system.cpu00.fetch.rateDist::min_value              0                       # Number of instructions fetched each cycle (Total)
system.cpu00.fetch.rateDist::max_value              8                       # Number of instructions fetched each cycle (Total)
system.cpu00.fetch.rateDist::total             789986                       # Number of instructions fetched each cycle (Total)
system.cpu00.fetch.branchRate                0.134389                       # Number of branch fetches per cycle
system.cpu00.fetch.rate                      1.207414                       # Number of inst fetches per cycle
system.cpu00.decode.IdleCycles                  88780                       # Number of cycles decode is idle
system.cpu00.decode.BlockedCycles              533785                       # Number of cycles decode is blocked
system.cpu00.decode.RunCycles                  130064                       # Number of cycles decode is running
system.cpu00.decode.UnblockCycles               32770                       # Number of cycles decode is unblocking
system.cpu00.decode.SquashCycles                 4587                       # Number of cycles decode is squashing
system.cpu00.decode.BranchResolved              26442                       # Number of times decode resolved a branch
system.cpu00.decode.BranchMispred                1782                       # Number of times decode detected a branch misprediction
system.cpu00.decode.DecodedInsts              1123747                       # Number of instructions handled by decode
system.cpu00.decode.SquashedInsts                7342                       # Number of squashed instructions handled by decode
system.cpu00.rename.SquashCycles                 4587                       # Number of cycles rename is squashing
system.cpu00.rename.IdleCycles                 104457                       # Number of cycles rename is idle
system.cpu00.rename.BlockCycles                 80361                       # Number of cycles rename is blocking
system.cpu00.rename.serializeStallCycles       213726                       # count of cycles rename stalled for serializing inst
system.cpu00.rename.RunCycles                  147286                       # Number of cycles rename is running
system.cpu00.rename.UnblockCycles              239569                       # Number of cycles rename is unblocking
system.cpu00.rename.RenamedInsts              1104640                       # Number of instructions processed by rename
system.cpu00.rename.ROBFullEvents                2593                       # Number of times rename has blocked due to ROB full
system.cpu00.rename.IQFullEvents                21824                       # Number of times rename has blocked due to IQ full
system.cpu00.rename.LQFullEvents                 1990                       # Number of times rename has blocked due to LQ full
system.cpu00.rename.SQFullEvents               205096                       # Number of times rename has blocked due to SQ full
system.cpu00.rename.RenamedOperands            756923                       # Number of destination operands rename has renamed
system.cpu00.rename.RenameLookups             1367676                       # Number of register rename lookups that rename has made
system.cpu00.rename.int_rename_lookups        1209580                       # Number of integer rename lookups
system.cpu00.rename.fp_rename_lookups          155809                       # Number of floating rename lookups
system.cpu00.rename.CommittedMaps              668969                       # Number of HB maps that are committed
system.cpu00.rename.UndoneMaps                  87954                       # Number of HB maps that are undone due to squashing
system.cpu00.rename.serializingInsts             4016                       # count of serializing insts renamed
system.cpu00.rename.tempSerializingInsts         1654                       # count of temporary serializing insts renamed
system.cpu00.rename.skidInsts                  145545                       # count of insts added to the skid buffer
system.cpu00.memDep0.insertedLoads             179145                       # Number of loads inserted to the mem dependence unit.
system.cpu00.memDep0.insertedStores            135149                       # Number of stores inserted to the mem dependence unit.
system.cpu00.memDep0.conflictingLoads           31901                       # Number of conflicting loads.
system.cpu00.memDep0.conflictingStores          12094                       # Number of conflicting stores.
system.cpu00.iq.iqInstsAdded                   967231                       # Number of instructions added to the IQ (excludes non-spec)
system.cpu00.iq.iqNonSpecInstsAdded              2733                       # Number of non-speculative instructions added to the IQ
system.cpu00.iq.iqInstsIssued                  950253                       # Number of instructions issued
system.cpu00.iq.iqSquashedInstsIssued            1678                       # Number of squashed instructions issued
system.cpu00.iq.iqSquashedInstsExamined         99885                       # Number of squashed instructions iterated over during squash; mainly for profiling
system.cpu00.iq.iqSquashedOperandsExamined        50202                       # Number of squashed operands that are examined and possibly removed from graph
system.cpu00.iq.iqSquashedNonSpecRemoved          355                       # Number of squashed non-spec instructions that were removed
system.cpu00.iq.issued_per_cycle::samples       789986                       # Number of insts issued each cycle
system.cpu00.iq.issued_per_cycle::mean       1.202873                       # Number of insts issued each cycle
system.cpu00.iq.issued_per_cycle::stdev      1.957946                       # Number of insts issued each cycle
system.cpu00.iq.issued_per_cycle::underflows            0      0.00%      0.00% # Number of insts issued each cycle
system.cpu00.iq.issued_per_cycle::0            493824     62.51%     62.51% # Number of insts issued each cycle
system.cpu00.iq.issued_per_cycle::1             72763      9.21%     71.72% # Number of insts issued each cycle
system.cpu00.iq.issued_per_cycle::2             59991      7.59%     79.32% # Number of insts issued each cycle
system.cpu00.iq.issued_per_cycle::3             45071      5.71%     85.02% # Number of insts issued each cycle
system.cpu00.iq.issued_per_cycle::4             43482      5.50%     90.52% # Number of insts issued each cycle
system.cpu00.iq.issued_per_cycle::5             28259      3.58%     94.10% # Number of insts issued each cycle
system.cpu00.iq.issued_per_cycle::6             27113      3.43%     97.53% # Number of insts issued each cycle
system.cpu00.iq.issued_per_cycle::7             11470      1.45%     98.99% # Number of insts issued each cycle
system.cpu00.iq.issued_per_cycle::8              8013      1.01%    100.00% # Number of insts issued each cycle
system.cpu00.iq.issued_per_cycle::overflows            0      0.00%    100.00% # Number of insts issued each cycle
system.cpu00.iq.issued_per_cycle::min_value            0                       # Number of insts issued each cycle
system.cpu00.iq.issued_per_cycle::max_value            8                       # Number of insts issued each cycle
system.cpu00.iq.issued_per_cycle::total        789986                       # Number of insts issued each cycle
system.cpu00.iq.fu_full::No_OpClass                 0      0.00%      0.00% # attempts to use FU when none available
system.cpu00.iq.fu_full::IntAlu                  5005     16.41%     16.41% # attempts to use FU when none available
system.cpu00.iq.fu_full::IntMult                 4097     13.43%     29.84% # attempts to use FU when none available
system.cpu00.iq.fu_full::IntDiv                     0      0.00%     29.84% # attempts to use FU when none available
system.cpu00.iq.fu_full::FloatAdd                  65      0.21%     30.05% # attempts to use FU when none available
system.cpu00.iq.fu_full::FloatCmp                   0      0.00%     30.05% # attempts to use FU when none available
system.cpu00.iq.fu_full::FloatCvt                   0      0.00%     30.05% # attempts to use FU when none available
system.cpu00.iq.fu_full::FloatMult               5908     19.37%     49.41% # attempts to use FU when none available
system.cpu00.iq.fu_full::FloatDiv                   0      0.00%     49.41% # attempts to use FU when none available
system.cpu00.iq.fu_full::FloatSqrt                  0      0.00%     49.41% # attempts to use FU when none available
system.cpu00.iq.fu_full::SimdAdd                    0      0.00%     49.41% # attempts to use FU when none available
system.cpu00.iq.fu_full::SimdAddAcc                 0      0.00%     49.41% # attempts to use FU when none available
system.cpu00.iq.fu_full::SimdAlu                    0      0.00%     49.41% # attempts to use FU when none available
system.cpu00.iq.fu_full::SimdCmp                    0      0.00%     49.41% # attempts to use FU when none available
system.cpu00.iq.fu_full::SimdCvt                    0      0.00%     49.41% # attempts to use FU when none available
system.cpu00.iq.fu_full::SimdMisc                   0      0.00%     49.41% # attempts to use FU when none available
system.cpu00.iq.fu_full::SimdMult                   0      0.00%     49.41% # attempts to use FU when none available
system.cpu00.iq.fu_full::SimdMultAcc                0      0.00%     49.41% # attempts to use FU when none available
system.cpu00.iq.fu_full::SimdShift                  0      0.00%     49.41% # attempts to use FU when none available
system.cpu00.iq.fu_full::SimdShiftAcc               0      0.00%     49.41% # attempts to use FU when none available
system.cpu00.iq.fu_full::SimdSqrt                   0      0.00%     49.41% # attempts to use FU when none available
system.cpu00.iq.fu_full::SimdFloatAdd               0      0.00%     49.41% # attempts to use FU when none available
system.cpu00.iq.fu_full::SimdFloatAlu               0      0.00%     49.41% # attempts to use FU when none available
system.cpu00.iq.fu_full::SimdFloatCmp               0      0.00%     49.41% # attempts to use FU when none available
system.cpu00.iq.fu_full::SimdFloatCvt               0      0.00%     49.41% # attempts to use FU when none available
system.cpu00.iq.fu_full::SimdFloatDiv               0      0.00%     49.41% # attempts to use FU when none available
system.cpu00.iq.fu_full::SimdFloatMisc              0      0.00%     49.41% # attempts to use FU when none available
system.cpu00.iq.fu_full::SimdFloatMult              0      0.00%     49.41% # attempts to use FU when none available
system.cpu00.iq.fu_full::SimdFloatMultAcc            0      0.00%     49.41% # attempts to use FU when none available
system.cpu00.iq.fu_full::SimdFloatSqrt              0      0.00%     49.41% # attempts to use FU when none available
system.cpu00.iq.fu_full::MemRead                 9478     31.07%     80.48% # attempts to use FU when none available
system.cpu00.iq.fu_full::MemWrite                5954     19.52%    100.00% # attempts to use FU when none available
system.cpu00.iq.fu_full::IprAccess                  0      0.00%    100.00% # attempts to use FU when none available
system.cpu00.iq.fu_full::InstPrefetch               0      0.00%    100.00% # attempts to use FU when none available
system.cpu00.iq.FU_type_0::No_OpClass               0      0.00%      0.00% # Type of FU issued
system.cpu00.iq.FU_type_0::IntAlu              550802     57.96%     57.96% # Type of FU issued
system.cpu00.iq.FU_type_0::IntMult              12788      1.35%     59.31% # Type of FU issued
system.cpu00.iq.FU_type_0::IntDiv                   0      0.00%     59.31% # Type of FU issued
system.cpu00.iq.FU_type_0::FloatAdd             35719      3.76%     63.07% # Type of FU issued
system.cpu00.iq.FU_type_0::FloatCmp                 8      0.00%     63.07% # Type of FU issued
system.cpu00.iq.FU_type_0::FloatCvt                 0      0.00%     63.07% # Type of FU issued
system.cpu00.iq.FU_type_0::FloatMult            37108      3.91%     66.97% # Type of FU issued
system.cpu00.iq.FU_type_0::FloatDiv                16      0.00%     66.98% # Type of FU issued
system.cpu00.iq.FU_type_0::FloatSqrt                0      0.00%     66.98% # Type of FU issued
system.cpu00.iq.FU_type_0::SimdAdd                  0      0.00%     66.98% # Type of FU issued
system.cpu00.iq.FU_type_0::SimdAddAcc               0      0.00%     66.98% # Type of FU issued
system.cpu00.iq.FU_type_0::SimdAlu                  0      0.00%     66.98% # Type of FU issued
system.cpu00.iq.FU_type_0::SimdCmp                  0      0.00%     66.98% # Type of FU issued
system.cpu00.iq.FU_type_0::SimdCvt                  0      0.00%     66.98% # Type of FU issued
system.cpu00.iq.FU_type_0::SimdMisc                 0      0.00%     66.98% # Type of FU issued
system.cpu00.iq.FU_type_0::SimdMult                 0      0.00%     66.98% # Type of FU issued
system.cpu00.iq.FU_type_0::SimdMultAcc              0      0.00%     66.98% # Type of FU issued
system.cpu00.iq.FU_type_0::SimdShift                0      0.00%     66.98% # Type of FU issued
system.cpu00.iq.FU_type_0::SimdShiftAcc             0      0.00%     66.98% # Type of FU issued
system.cpu00.iq.FU_type_0::SimdSqrt                 0      0.00%     66.98% # Type of FU issued
system.cpu00.iq.FU_type_0::SimdFloatAdd             0      0.00%     66.98% # Type of FU issued
system.cpu00.iq.FU_type_0::SimdFloatAlu             0      0.00%     66.98% # Type of FU issued
system.cpu00.iq.FU_type_0::SimdFloatCmp             0      0.00%     66.98% # Type of FU issued
system.cpu00.iq.FU_type_0::SimdFloatCvt             0      0.00%     66.98% # Type of FU issued
system.cpu00.iq.FU_type_0::SimdFloatDiv             0      0.00%     66.98% # Type of FU issued
system.cpu00.iq.FU_type_0::SimdFloatMisc            0      0.00%     66.98% # Type of FU issued
system.cpu00.iq.FU_type_0::SimdFloatMult            0      0.00%     66.98% # Type of FU issued
system.cpu00.iq.FU_type_0::SimdFloatMultAcc            0      0.00%     66.98% # Type of FU issued
system.cpu00.iq.FU_type_0::SimdFloatSqrt            0      0.00%     66.98% # Type of FU issued
system.cpu00.iq.FU_type_0::MemRead             183586     19.32%     86.30% # Type of FU issued
system.cpu00.iq.FU_type_0::MemWrite            130226     13.70%    100.00% # Type of FU issued
system.cpu00.iq.FU_type_0::IprAccess                0      0.00%    100.00% # Type of FU issued
system.cpu00.iq.FU_type_0::InstPrefetch             0      0.00%    100.00% # Type of FU issued
system.cpu00.iq.FU_type_0::total               950253                       # Type of FU issued
system.cpu00.iq.rate                         0.966186                       # Inst issue rate
system.cpu00.iq.fu_busy_cnt                     30507                       # FU busy when requested
system.cpu00.iq.fu_busy_rate                 0.032104                       # FU busy rate (busy events/executed inst)
system.cpu00.iq.int_inst_queue_reads          2479498                       # Number of integer instruction queue reads
system.cpu00.iq.int_inst_queue_writes          946975                       # Number of integer instruction queue writes
system.cpu00.iq.int_inst_queue_wakeup_accesses       813160                       # Number of integer instruction queue wakeup accesses
system.cpu00.iq.fp_inst_queue_reads            243179                       # Number of floating instruction queue reads
system.cpu00.iq.fp_inst_queue_writes           123292                       # Number of floating instruction queue writes
system.cpu00.iq.fp_inst_queue_wakeup_accesses       116955                       # Number of floating instruction queue wakeup accesses
system.cpu00.iq.int_alu_accesses               855852                       # Number of integer alu accesses
system.cpu00.iq.fp_alu_accesses                124908                       # Number of floating point alu accesses
system.cpu00.iew.lsq.thread0.forwLoads          21048                       # Number of loads that had data forwarded from stores
system.cpu00.iew.lsq.thread0.invAddrLoads            0                       # Number of loads ignored due to an invalid address
system.cpu00.iew.lsq.thread0.squashedLoads        18138                       # Number of loads squashed
system.cpu00.iew.lsq.thread0.ignoredResponses           46                       # Number of memory responses ignored because the instruction is squashed
system.cpu00.iew.lsq.thread0.memOrderViolation          426                       # Number of memory ordering violations
system.cpu00.iew.lsq.thread0.squashedStores        15621                       # Number of stores squashed
system.cpu00.iew.lsq.thread0.invAddrSwpfs            0                       # Number of software prefetches ignored due to an invalid address
system.cpu00.iew.lsq.thread0.blockedLoads            0                       # Number of blocked loads due to partial load-store forwarding
system.cpu00.iew.lsq.thread0.rescheduledLoads          221                       # Number of loads that were rescheduled
system.cpu00.iew.lsq.thread0.cacheBlocked         8748                       # Number of times an access to memory failed due to the cache being blocked
system.cpu00.iew.iewIdleCycles                      0                       # Number of cycles IEW is idle
system.cpu00.iew.iewSquashCycles                 4587                       # Number of cycles IEW is squashing
system.cpu00.iew.iewBlockCycles                 21973                       # Number of cycles IEW is blocking
system.cpu00.iew.iewUnblockCycles               51289                       # Number of cycles IEW is unblocking
system.cpu00.iew.iewDispatchedInsts           1077548                       # Number of instructions dispatched to IQ
system.cpu00.iew.iewDispSquashedInsts            1591                       # Number of squashed instructions skipped by dispatch
system.cpu00.iew.iewDispLoadInsts              179145                       # Number of dispatched load instructions
system.cpu00.iew.iewDispStoreInsts             135149                       # Number of dispatched store instructions
system.cpu00.iew.iewDispNonSpecInsts             1566                       # Number of dispatched non-speculative instructions
system.cpu00.iew.iewIQFullEvents                  111                       # Number of times the IQ has become full, causing a stall
system.cpu00.iew.iewLSQFullEvents               51092                       # Number of times the LSQ has become full, causing a stall
system.cpu00.iew.memOrderViolationEvents          426                       # Number of memory order violations
system.cpu00.iew.predictedTakenIncorrect         1544                       # Number of branches that were predicted taken incorrectly
system.cpu00.iew.predictedNotTakenIncorrect         3118                       # Number of branches that were predicted not taken incorrectly
system.cpu00.iew.branchMispredicts               4662                       # Number of branch mispredicts detected at execute
system.cpu00.iew.iewExecutedInsts              942654                       # Number of executed instructions
system.cpu00.iew.iewExecLoadInsts              180418                       # Number of load instructions executed
system.cpu00.iew.iewExecSquashedInsts            7599                       # Number of squashed instructions skipped in execute
system.cpu00.iew.exec_swp                           0                       # number of swp insts executed
system.cpu00.iew.exec_nop                      107584                       # number of nop insts executed
system.cpu00.iew.exec_refs                     309074                       # number of memory reference insts executed
system.cpu00.iew.exec_branches                 110322                       # Number of branches executed
system.cpu00.iew.exec_stores                   128656                       # Number of stores executed
system.cpu00.iew.exec_rate                   0.958460                       # Inst execution rate
system.cpu00.iew.wb_sent                       933773                       # cumulative count of insts sent to commit
system.cpu00.iew.wb_count                      930115                       # cumulative count of insts written-back
system.cpu00.iew.wb_producers                  545430                       # num instructions producing a value
system.cpu00.iew.wb_consumers                  776990                       # num instructions consuming a value
system.cpu00.iew.wb_rate                     0.945711                       # insts written-back per cycle
system.cpu00.iew.wb_fanout                   0.701978                       # average fanout of values written-back
system.cpu00.commit.commitSquashedInsts        103879                       # The number of squashed insts skipped by commit
system.cpu00.commit.commitNonSpecStalls          2378                       # The number of times commit has been forced to stall to communicate backwards
system.cpu00.commit.branchMispredicts            3908                       # The number of times a branch was mispredicted
system.cpu00.commit.committed_per_cycle::samples       773711                       # Number of insts commited each cycle
system.cpu00.commit.committed_per_cycle::mean     1.252070                       # Number of insts commited each cycle
system.cpu00.commit.committed_per_cycle::stdev     2.336350                       # Number of insts commited each cycle
system.cpu00.commit.committed_per_cycle::underflows            0      0.00%      0.00% # Number of insts commited each cycle
system.cpu00.commit.committed_per_cycle::0       525638     67.94%     67.94% # Number of insts commited each cycle
system.cpu00.commit.committed_per_cycle::1        51304      6.63%     74.57% # Number of insts commited each cycle
system.cpu00.commit.committed_per_cycle::2        51247      6.62%     81.19% # Number of insts commited each cycle
system.cpu00.commit.committed_per_cycle::3        30119      3.89%     85.08% # Number of insts commited each cycle
system.cpu00.commit.committed_per_cycle::4        35312      4.56%     89.65% # Number of insts commited each cycle
system.cpu00.commit.committed_per_cycle::5         8864      1.15%     90.79% # Number of insts commited each cycle
system.cpu00.commit.committed_per_cycle::6        12876      1.66%     92.46% # Number of insts commited each cycle
system.cpu00.commit.committed_per_cycle::7         5047      0.65%     93.11% # Number of insts commited each cycle
system.cpu00.commit.committed_per_cycle::8        53304      6.89%    100.00% # Number of insts commited each cycle
system.cpu00.commit.committed_per_cycle::overflows            0      0.00%    100.00% # Number of insts commited each cycle
system.cpu00.commit.committed_per_cycle::min_value            0                       # Number of insts commited each cycle
system.cpu00.commit.committed_per_cycle::max_value            8                       # Number of insts commited each cycle
system.cpu00.commit.committed_per_cycle::total       773711                       # Number of insts commited each cycle
system.cpu00.commit.committedInsts             968740                       # Number of instructions committed
system.cpu00.commit.committedOps               968740                       # Number of ops (including micro ops) committed
system.cpu00.commit.swp_count                       0                       # Number of s/w prefetches committed
system.cpu00.commit.refs                       280535                       # Number of memory references committed
system.cpu00.commit.loads                      161007                       # Number of loads committed
system.cpu00.commit.membars                      1038                       # Number of memory barriers committed
system.cpu00.commit.branches                   100164                       # Number of branches committed
system.cpu00.commit.fp_insts                   116058                       # Number of committed floating point instructions.
system.cpu00.commit.int_insts                  792204                       # Number of committed integer instructions.
system.cpu00.commit.function_calls              22224                       # Number of function calls committed.
system.cpu00.commit.op_class_0::No_OpClass        98662     10.18%     10.18% # Class of committed instruction
system.cpu00.commit.op_class_0::IntAlu         503378     51.96%     62.15% # Class of committed instruction
system.cpu00.commit.op_class_0::IntMult         12689      1.31%     63.46% # Class of committed instruction
system.cpu00.commit.op_class_0::IntDiv              0      0.00%     63.46% # Class of committed instruction
system.cpu00.commit.op_class_0::FloatAdd        35480      3.66%     67.12% # Class of committed instruction
system.cpu00.commit.op_class_0::FloatCmp            8      0.00%     67.12% # Class of committed instruction
system.cpu00.commit.op_class_0::FloatCvt            0      0.00%     67.12% # Class of committed instruction
system.cpu00.commit.op_class_0::FloatMult        36935      3.81%     70.93% # Class of committed instruction
system.cpu00.commit.op_class_0::FloatDiv           14      0.00%     70.93% # Class of committed instruction
system.cpu00.commit.op_class_0::FloatSqrt            0      0.00%     70.93% # Class of committed instruction
system.cpu00.commit.op_class_0::SimdAdd             0      0.00%     70.93% # Class of committed instruction
system.cpu00.commit.op_class_0::SimdAddAcc            0      0.00%     70.93% # Class of committed instruction
system.cpu00.commit.op_class_0::SimdAlu             0      0.00%     70.93% # Class of committed instruction
system.cpu00.commit.op_class_0::SimdCmp             0      0.00%     70.93% # Class of committed instruction
system.cpu00.commit.op_class_0::SimdCvt             0      0.00%     70.93% # Class of committed instruction
system.cpu00.commit.op_class_0::SimdMisc            0      0.00%     70.93% # Class of committed instruction
system.cpu00.commit.op_class_0::SimdMult            0      0.00%     70.93% # Class of committed instruction
system.cpu00.commit.op_class_0::SimdMultAcc            0      0.00%     70.93% # Class of committed instruction
system.cpu00.commit.op_class_0::SimdShift            0      0.00%     70.93% # Class of committed instruction
system.cpu00.commit.op_class_0::SimdShiftAcc            0      0.00%     70.93% # Class of committed instruction
system.cpu00.commit.op_class_0::SimdSqrt            0      0.00%     70.93% # Class of committed instruction
system.cpu00.commit.op_class_0::SimdFloatAdd            0      0.00%     70.93% # Class of committed instruction
system.cpu00.commit.op_class_0::SimdFloatAlu            0      0.00%     70.93% # Class of committed instruction
system.cpu00.commit.op_class_0::SimdFloatCmp            0      0.00%     70.93% # Class of committed instruction
system.cpu00.commit.op_class_0::SimdFloatCvt            0      0.00%     70.93% # Class of committed instruction
system.cpu00.commit.op_class_0::SimdFloatDiv            0      0.00%     70.93% # Class of committed instruction
system.cpu00.commit.op_class_0::SimdFloatMisc            0      0.00%     70.93% # Class of committed instruction
system.cpu00.commit.op_class_0::SimdFloatMult            0      0.00%     70.93% # Class of committed instruction
system.cpu00.commit.op_class_0::SimdFloatMultAcc            0      0.00%     70.93% # Class of committed instruction
system.cpu00.commit.op_class_0::SimdFloatSqrt            0      0.00%     70.93% # Class of committed instruction
system.cpu00.commit.op_class_0::MemRead        162045     16.73%     87.66% # Class of committed instruction
system.cpu00.commit.op_class_0::MemWrite       119529     12.34%    100.00% # Class of committed instruction
system.cpu00.commit.op_class_0::IprAccess            0      0.00%    100.00% # Class of committed instruction
system.cpu00.commit.op_class_0::InstPrefetch            0      0.00%    100.00% # Class of committed instruction
system.cpu00.commit.op_class_0::total          968740                       # Class of committed instruction
system.cpu00.commit.bw_lim_events               53304                       # number cycles where commit BW limit reached
system.cpu00.rob.rob_reads                    1789048                       # The number of ROB reads
system.cpu00.rob.rob_writes                   2161629                       # The number of ROB writes
system.cpu00.timesIdled                          1449                       # Number of times that the entire CPU went into an idle state and unscheduled itself
system.cpu00.idleCycles                        193523                       # Total number of cycles that the CPU has spent unscheduled due to idling
system.cpu00.quiesceCycles                     102598                       # Total number of cycles that CPU has spent quiesced or waiting for an interrupt
system.cpu00.committedInsts                    870078                       # Number of Instructions Simulated
system.cpu00.committedOps                      870078                       # Number of Ops (including micro ops) Simulated
system.cpu00.cpi                             1.130369                       # CPI: Cycles Per Instruction
system.cpu00.cpi_total                       1.130369                       # CPI: Total CPI of All Threads
system.cpu00.ipc                             0.884667                       # IPC: Instructions Per Cycle
system.cpu00.ipc_total                       0.884667                       # IPC: Total IPC of All Threads
system.cpu00.int_regfile_reads                1138677                       # number of integer regfile reads
system.cpu00.int_regfile_writes                612453                       # number of integer regfile writes
system.cpu00.fp_regfile_reads                  151790                       # number of floating regfile reads
system.cpu00.fp_regfile_writes                 102916                       # number of floating regfile writes
system.cpu00.misc_regfile_reads                  5091                       # number of misc regfile reads
system.cpu00.misc_regfile_writes                 2255                       # number of misc regfile writes
system.cpu00.dcache.tags.replacements           11249                       # number of replacements
system.cpu00.dcache.tags.tagsinuse         124.480197                       # Cycle average of tags in use
system.cpu00.dcache.tags.total_refs            229851                       # Total number of references to valid blocks.
system.cpu00.dcache.tags.sampled_refs           11377                       # Sample count of references to valid blocks.
system.cpu00.dcache.tags.avg_refs           20.203129                       # Average number of references to valid blocks.
system.cpu00.dcache.tags.warmup_cycle        86323968                       # Cycle when the warmup percentage was hit.
system.cpu00.dcache.tags.occ_blocks::cpu00.data   124.480197                       # Average occupied blocks per requestor
system.cpu00.dcache.tags.occ_percent::cpu00.data     0.972502                       # Average percentage of cache occupancy
system.cpu00.dcache.tags.occ_percent::total     0.972502                       # Average percentage of cache occupancy
system.cpu00.dcache.tags.occ_task_id_blocks::1024          128                       # Occupied blocks per task id
system.cpu00.dcache.tags.age_task_id_blocks_1024::0           57                       # Occupied blocks per task id
system.cpu00.dcache.tags.age_task_id_blocks_1024::1           62                       # Occupied blocks per task id
system.cpu00.dcache.tags.age_task_id_blocks_1024::2            9                       # Occupied blocks per task id
system.cpu00.dcache.tags.occ_task_id_percent::1024            1                       # Percentage of cache occupancy per task id
system.cpu00.dcache.tags.tag_accesses         1096375                       # Number of tag accesses
system.cpu00.dcache.tags.data_accesses        1096375                       # Number of data accesses
system.cpu00.dcache.ReadReq_hits::cpu00.data       142250                       # number of ReadReq hits
system.cpu00.dcache.ReadReq_hits::total        142250                       # number of ReadReq hits
system.cpu00.dcache.WriteReq_hits::cpu00.data        85381                       # number of WriteReq hits
system.cpu00.dcache.WriteReq_hits::total        85381                       # number of WriteReq hits
system.cpu00.dcache.LoadLockedReq_hits::cpu00.data          956                       # number of LoadLockedReq hits
system.cpu00.dcache.LoadLockedReq_hits::total          956                       # number of LoadLockedReq hits
system.cpu00.dcache.StoreCondReq_hits::cpu00.data         1101                       # number of StoreCondReq hits
system.cpu00.dcache.StoreCondReq_hits::total         1101                       # number of StoreCondReq hits
system.cpu00.dcache.demand_hits::cpu00.data       227631                       # number of demand (read+write) hits
system.cpu00.dcache.demand_hits::total         227631                       # number of demand (read+write) hits
system.cpu00.dcache.overall_hits::cpu00.data       227631                       # number of overall hits
system.cpu00.dcache.overall_hits::total        227631                       # number of overall hits
system.cpu00.dcache.ReadReq_misses::cpu00.data         8208                       # number of ReadReq misses
system.cpu00.dcache.ReadReq_misses::total         8208                       # number of ReadReq misses
system.cpu00.dcache.WriteReq_misses::cpu00.data        33023                       # number of WriteReq misses
system.cpu00.dcache.WriteReq_misses::total        33023                       # number of WriteReq misses
system.cpu00.dcache.LoadLockedReq_misses::cpu00.data          236                       # number of LoadLockedReq misses
system.cpu00.dcache.LoadLockedReq_misses::total          236                       # number of LoadLockedReq misses
system.cpu00.dcache.StoreCondReq_misses::cpu00.data           22                       # number of StoreCondReq misses
system.cpu00.dcache.StoreCondReq_misses::total           22                       # number of StoreCondReq misses
system.cpu00.dcache.demand_misses::cpu00.data        41231                       # number of demand (read+write) misses
system.cpu00.dcache.demand_misses::total        41231                       # number of demand (read+write) misses
system.cpu00.dcache.overall_misses::cpu00.data        41231                       # number of overall misses
system.cpu00.dcache.overall_misses::total        41231                       # number of overall misses
system.cpu00.dcache.ReadReq_miss_latency::cpu00.data    412976178                       # number of ReadReq miss cycles
system.cpu00.dcache.ReadReq_miss_latency::total    412976178                       # number of ReadReq miss cycles
system.cpu00.dcache.WriteReq_miss_latency::cpu00.data   5423349134                       # number of WriteReq miss cycles
system.cpu00.dcache.WriteReq_miss_latency::total   5423349134                       # number of WriteReq miss cycles
system.cpu00.dcache.LoadLockedReq_miss_latency::cpu00.data      2573424                       # number of LoadLockedReq miss cycles
system.cpu00.dcache.LoadLockedReq_miss_latency::total      2573424                       # number of LoadLockedReq miss cycles
system.cpu00.dcache.StoreCondReq_miss_latency::cpu00.data       468234                       # number of StoreCondReq miss cycles
system.cpu00.dcache.StoreCondReq_miss_latency::total       468234                       # number of StoreCondReq miss cycles
system.cpu00.dcache.demand_miss_latency::cpu00.data   5836325312                       # number of demand (read+write) miss cycles
system.cpu00.dcache.demand_miss_latency::total   5836325312                       # number of demand (read+write) miss cycles
system.cpu00.dcache.overall_miss_latency::cpu00.data   5836325312                       # number of overall miss cycles
system.cpu00.dcache.overall_miss_latency::total   5836325312                       # number of overall miss cycles
system.cpu00.dcache.ReadReq_accesses::cpu00.data       150458                       # number of ReadReq accesses(hits+misses)
system.cpu00.dcache.ReadReq_accesses::total       150458                       # number of ReadReq accesses(hits+misses)
system.cpu00.dcache.WriteReq_accesses::cpu00.data       118404                       # number of WriteReq accesses(hits+misses)
system.cpu00.dcache.WriteReq_accesses::total       118404                       # number of WriteReq accesses(hits+misses)
system.cpu00.dcache.LoadLockedReq_accesses::cpu00.data         1192                       # number of LoadLockedReq accesses(hits+misses)
system.cpu00.dcache.LoadLockedReq_accesses::total         1192                       # number of LoadLockedReq accesses(hits+misses)
system.cpu00.dcache.StoreCondReq_accesses::cpu00.data         1123                       # number of StoreCondReq accesses(hits+misses)
system.cpu00.dcache.StoreCondReq_accesses::total         1123                       # number of StoreCondReq accesses(hits+misses)
system.cpu00.dcache.demand_accesses::cpu00.data       268862                       # number of demand (read+write) accesses
system.cpu00.dcache.demand_accesses::total       268862                       # number of demand (read+write) accesses
system.cpu00.dcache.overall_accesses::cpu00.data       268862                       # number of overall (read+write) accesses
system.cpu00.dcache.overall_accesses::total       268862                       # number of overall (read+write) accesses
system.cpu00.dcache.ReadReq_miss_rate::cpu00.data     0.054553                       # miss rate for ReadReq accesses
system.cpu00.dcache.ReadReq_miss_rate::total     0.054553                       # miss rate for ReadReq accesses
system.cpu00.dcache.WriteReq_miss_rate::cpu00.data     0.278901                       # miss rate for WriteReq accesses
system.cpu00.dcache.WriteReq_miss_rate::total     0.278901                       # miss rate for WriteReq accesses
system.cpu00.dcache.LoadLockedReq_miss_rate::cpu00.data     0.197987                       # miss rate for LoadLockedReq accesses
system.cpu00.dcache.LoadLockedReq_miss_rate::total     0.197987                       # miss rate for LoadLockedReq accesses
system.cpu00.dcache.StoreCondReq_miss_rate::cpu00.data     0.019590                       # miss rate for StoreCondReq accesses
system.cpu00.dcache.StoreCondReq_miss_rate::total     0.019590                       # miss rate for StoreCondReq accesses
system.cpu00.dcache.demand_miss_rate::cpu00.data     0.153354                       # miss rate for demand accesses
system.cpu00.dcache.demand_miss_rate::total     0.153354                       # miss rate for demand accesses
system.cpu00.dcache.overall_miss_rate::cpu00.data     0.153354                       # miss rate for overall accesses
system.cpu00.dcache.overall_miss_rate::total     0.153354                       # miss rate for overall accesses
system.cpu00.dcache.ReadReq_avg_miss_latency::cpu00.data 50313.861842                       # average ReadReq miss latency
system.cpu00.dcache.ReadReq_avg_miss_latency::total 50313.861842                       # average ReadReq miss latency
system.cpu00.dcache.WriteReq_avg_miss_latency::cpu00.data 164229.450201                       # average WriteReq miss latency
system.cpu00.dcache.WriteReq_avg_miss_latency::total 164229.450201                       # average WriteReq miss latency
system.cpu00.dcache.LoadLockedReq_avg_miss_latency::cpu00.data 10904.338983                       # average LoadLockedReq miss latency
system.cpu00.dcache.LoadLockedReq_avg_miss_latency::total 10904.338983                       # average LoadLockedReq miss latency
system.cpu00.dcache.StoreCondReq_avg_miss_latency::cpu00.data 21283.363636                       # average StoreCondReq miss latency
system.cpu00.dcache.StoreCondReq_avg_miss_latency::total 21283.363636                       # average StoreCondReq miss latency
system.cpu00.dcache.demand_avg_miss_latency::cpu00.data 141551.873881                       # average overall miss latency
system.cpu00.dcache.demand_avg_miss_latency::total 141551.873881                       # average overall miss latency
system.cpu00.dcache.overall_avg_miss_latency::cpu00.data 141551.873881                       # average overall miss latency
system.cpu00.dcache.overall_avg_miss_latency::total 141551.873881                       # average overall miss latency
system.cpu00.dcache.blocked_cycles::no_mshrs       148972                       # number of cycles access was blocked
system.cpu00.dcache.blocked_cycles::no_targets            0                       # number of cycles access was blocked
system.cpu00.dcache.blocked::no_mshrs            2548                       # number of cycles access was blocked
system.cpu00.dcache.blocked::no_targets             0                       # number of cycles access was blocked
system.cpu00.dcache.avg_blocked_cycles::no_mshrs    58.466248                       # average number of cycles each access was blocked
system.cpu00.dcache.avg_blocked_cycles::no_targets          nan                       # average number of cycles each access was blocked
system.cpu00.dcache.fast_writes                     0                       # number of fast writes performed
system.cpu00.dcache.cache_copies                    0                       # number of cache copies performed
system.cpu00.dcache.writebacks::writebacks         8373                       # number of writebacks
system.cpu00.dcache.writebacks::total            8373                       # number of writebacks
system.cpu00.dcache.ReadReq_mshr_hits::cpu00.data         2842                       # number of ReadReq MSHR hits
system.cpu00.dcache.ReadReq_mshr_hits::total         2842                       # number of ReadReq MSHR hits
system.cpu00.dcache.WriteReq_mshr_hits::cpu00.data        26736                       # number of WriteReq MSHR hits
system.cpu00.dcache.WriteReq_mshr_hits::total        26736                       # number of WriteReq MSHR hits
system.cpu00.dcache.LoadLockedReq_mshr_hits::cpu00.data          128                       # number of LoadLockedReq MSHR hits
system.cpu00.dcache.LoadLockedReq_mshr_hits::total          128                       # number of LoadLockedReq MSHR hits
system.cpu00.dcache.demand_mshr_hits::cpu00.data        29578                       # number of demand (read+write) MSHR hits
system.cpu00.dcache.demand_mshr_hits::total        29578                       # number of demand (read+write) MSHR hits
system.cpu00.dcache.overall_mshr_hits::cpu00.data        29578                       # number of overall MSHR hits
system.cpu00.dcache.overall_mshr_hits::total        29578                       # number of overall MSHR hits
system.cpu00.dcache.ReadReq_mshr_misses::cpu00.data         5366                       # number of ReadReq MSHR misses
system.cpu00.dcache.ReadReq_mshr_misses::total         5366                       # number of ReadReq MSHR misses
system.cpu00.dcache.WriteReq_mshr_misses::cpu00.data         6287                       # number of WriteReq MSHR misses
system.cpu00.dcache.WriteReq_mshr_misses::total         6287                       # number of WriteReq MSHR misses
system.cpu00.dcache.LoadLockedReq_mshr_misses::cpu00.data          108                       # number of LoadLockedReq MSHR misses
system.cpu00.dcache.LoadLockedReq_mshr_misses::total          108                       # number of LoadLockedReq MSHR misses
system.cpu00.dcache.StoreCondReq_mshr_misses::cpu00.data           22                       # number of StoreCondReq MSHR misses
system.cpu00.dcache.StoreCondReq_mshr_misses::total           22                       # number of StoreCondReq MSHR misses
system.cpu00.dcache.demand_mshr_misses::cpu00.data        11653                       # number of demand (read+write) MSHR misses
system.cpu00.dcache.demand_mshr_misses::total        11653                       # number of demand (read+write) MSHR misses
system.cpu00.dcache.overall_mshr_misses::cpu00.data        11653                       # number of overall MSHR misses
system.cpu00.dcache.overall_mshr_misses::total        11653                       # number of overall MSHR misses
system.cpu00.dcache.ReadReq_mshr_miss_latency::cpu00.data    237871566                       # number of ReadReq MSHR miss cycles
system.cpu00.dcache.ReadReq_mshr_miss_latency::total    237871566                       # number of ReadReq MSHR miss cycles
system.cpu00.dcache.WriteReq_mshr_miss_latency::cpu00.data   1148764167                       # number of WriteReq MSHR miss cycles
system.cpu00.dcache.WriteReq_mshr_miss_latency::total   1148764167                       # number of WriteReq MSHR miss cycles
system.cpu00.dcache.LoadLockedReq_mshr_miss_latency::cpu00.data      1045764                       # number of LoadLockedReq MSHR miss cycles
system.cpu00.dcache.LoadLockedReq_mshr_miss_latency::total      1045764                       # number of LoadLockedReq MSHR miss cycles
system.cpu00.dcache.StoreCondReq_mshr_miss_latency::cpu00.data       440910                       # number of StoreCondReq MSHR miss cycles
system.cpu00.dcache.StoreCondReq_mshr_miss_latency::total       440910                       # number of StoreCondReq MSHR miss cycles
system.cpu00.dcache.demand_mshr_miss_latency::cpu00.data   1386635733                       # number of demand (read+write) MSHR miss cycles
system.cpu00.dcache.demand_mshr_miss_latency::total   1386635733                       # number of demand (read+write) MSHR miss cycles
system.cpu00.dcache.overall_mshr_miss_latency::cpu00.data   1386635733                       # number of overall MSHR miss cycles
system.cpu00.dcache.overall_mshr_miss_latency::total   1386635733                       # number of overall MSHR miss cycles
system.cpu00.dcache.ReadReq_mshr_miss_rate::cpu00.data     0.035664                       # mshr miss rate for ReadReq accesses
system.cpu00.dcache.ReadReq_mshr_miss_rate::total     0.035664                       # mshr miss rate for ReadReq accesses
system.cpu00.dcache.WriteReq_mshr_miss_rate::cpu00.data     0.053098                       # mshr miss rate for WriteReq accesses
system.cpu00.dcache.WriteReq_mshr_miss_rate::total     0.053098                       # mshr miss rate for WriteReq accesses
system.cpu00.dcache.LoadLockedReq_mshr_miss_rate::cpu00.data     0.090604                       # mshr miss rate for LoadLockedReq accesses
system.cpu00.dcache.LoadLockedReq_mshr_miss_rate::total     0.090604                       # mshr miss rate for LoadLockedReq accesses
system.cpu00.dcache.StoreCondReq_mshr_miss_rate::cpu00.data     0.019590                       # mshr miss rate for StoreCondReq accesses
system.cpu00.dcache.StoreCondReq_mshr_miss_rate::total     0.019590                       # mshr miss rate for StoreCondReq accesses
system.cpu00.dcache.demand_mshr_miss_rate::cpu00.data     0.043342                       # mshr miss rate for demand accesses
system.cpu00.dcache.demand_mshr_miss_rate::total     0.043342                       # mshr miss rate for demand accesses
system.cpu00.dcache.overall_mshr_miss_rate::cpu00.data     0.043342                       # mshr miss rate for overall accesses
system.cpu00.dcache.overall_mshr_miss_rate::total     0.043342                       # mshr miss rate for overall accesses
system.cpu00.dcache.ReadReq_avg_mshr_miss_latency::cpu00.data 44329.401044                       # average ReadReq mshr miss latency
system.cpu00.dcache.ReadReq_avg_mshr_miss_latency::total 44329.401044                       # average ReadReq mshr miss latency
system.cpu00.dcache.WriteReq_avg_mshr_miss_latency::cpu00.data 182720.560999                       # average WriteReq mshr miss latency
system.cpu00.dcache.WriteReq_avg_mshr_miss_latency::total 182720.560999                       # average WriteReq mshr miss latency
[...]
system.tol2bus.pkt_count_system.cpu06.dcache.mem_side::system.l2.cpu_side         1076                       # Packet count per connected master and slave (bytes)
system.tol2bus.pkt_count_system.cpu07.icache.mem_side::system.l2.cpu_side         3555                       # Packet count per connected master and slave (bytes)
system.tol2bus.pkt_count_system.cpu07.dcache.mem_side::system.l2.cpu_side         4471                       # Packet count per connected master and slave (bytes)
system.tol2bus.pkt_count_system.cpu08.icache.mem_side::system.l2.cpu_side         3515                       # Packet count per connected master and slave (bytes)
system.tol2bus.pkt_count_system.cpu08.dcache.mem_side::system.l2.cpu_side         4493                       # Packet count per connected master and slave (bytes)
system.tol2bus.pkt_count_system.cpu09.icache.mem_side::system.l2.cpu_side         1229                       # Packet count per connected master and slave (bytes)
system.tol2bus.pkt_count_system.cpu09.dcache.mem_side::system.l2.cpu_side         1092                       # Packet count per connected master and slave (bytes)
system.tol2bus.pkt_count_system.cpu10.icache.mem_side::system.l2.cpu_side         3593                       # Packet count per connected master and slave (bytes)
system.tol2bus.pkt_count_system.cpu10.dcache.mem_side::system.l2.cpu_side         4014                       # Packet count per connected master and slave (bytes)
system.tol2bus.pkt_count_system.cpu11.icache.mem_side::system.l2.cpu_side         3361                       # Packet count per connected master and slave (bytes)
system.tol2bus.pkt_count_system.cpu11.dcache.mem_side::system.l2.cpu_side         3708                       # Packet count per connected master and slave (bytes)
system.tol2bus.pkt_count_system.cpu12.icache.mem_side::system.l2.cpu_side         2940                       # Packet count per connected master and slave (bytes)
system.tol2bus.pkt_count_system.cpu12.dcache.mem_side::system.l2.cpu_side         3072                       # Packet count per connected master and slave (bytes)
system.tol2bus.pkt_count_system.cpu13.icache.mem_side::system.l2.cpu_side         3492                       # Packet count per connected master and slave (bytes)
system.tol2bus.pkt_count_system.cpu13.dcache.mem_side::system.l2.cpu_side         3850                       # Packet count per connected master and slave (bytes)
system.tol2bus.pkt_count_system.cpu14.icache.mem_side::system.l2.cpu_side         2791                       # Packet count per connected master and slave (bytes)
system.tol2bus.pkt_count_system.cpu14.dcache.mem_side::system.l2.cpu_side         2589                       # Packet count per connected master and slave (bytes)
system.tol2bus.pkt_count_system.cpu15.icache.mem_side::system.l2.cpu_side         2796                       # Packet count per connected master and slave (bytes)
system.tol2bus.pkt_count_system.cpu15.dcache.mem_side::system.l2.cpu_side         3843                       # Packet count per connected master and slave (bytes)
system.tol2bus.pkt_count::total                138017                       # Packet count per connected master and slave (bytes)
system.tol2bus.pkt_size_system.cpu00.icache.mem_side::system.l2.cpu_side       975104                       # Cumulative packet size per connected master and slave (bytes)
system.tol2bus.pkt_size_system.cpu00.dcache.mem_side::system.l2.cpu_side      1265088                       # Cumulative packet size per connected master and slave (bytes)
system.tol2bus.pkt_size_system.cpu01.icache.mem_side::system.l2.cpu_side       104768                       # Cumulative packet size per connected master and slave (bytes)
system.tol2bus.pkt_size_system.cpu01.dcache.mem_side::system.l2.cpu_side        53248                       # Cumulative packet size per connected master and slave (bytes)
system.tol2bus.pkt_size_system.cpu02.icache.mem_side::system.l2.cpu_side        61376                       # Cumulative packet size per connected master and slave (bytes)
system.tol2bus.pkt_size_system.cpu02.dcache.mem_side::system.l2.cpu_side        34880                       # Cumulative packet size per connected master and slave (bytes)
system.tol2bus.pkt_size_system.cpu03.icache.mem_side::system.l2.cpu_side        36160                       # Cumulative packet size per connected master and slave (bytes)
system.tol2bus.pkt_size_system.cpu03.dcache.mem_side::system.l2.cpu_side        29184                       # Cumulative packet size per connected master and slave (bytes)
system.tol2bus.pkt_size_system.cpu04.icache.mem_side::system.l2.cpu_side        31232                       # Cumulative packet size per connected master and slave (bytes)
system.tol2bus.pkt_size_system.cpu04.dcache.mem_side::system.l2.cpu_side        28480                       # Cumulative packet size per connected master and slave (bytes)
system.tol2bus.pkt_size_system.cpu05.icache.mem_side::system.l2.cpu_side       107200                       # Cumulative packet size per connected master and slave (bytes)
system.tol2bus.pkt_size_system.cpu05.dcache.mem_side::system.l2.cpu_side        51840                       # Cumulative packet size per connected master and slave (bytes)
system.tol2bus.pkt_size_system.cpu06.icache.mem_side::system.l2.cpu_side        39808                       # Cumulative packet size per connected master and slave (bytes)
system.tol2bus.pkt_size_system.cpu06.dcache.mem_side::system.l2.cpu_side        28480                       # Cumulative packet size per connected master and slave (bytes)
system.tol2bus.pkt_size_system.cpu07.icache.mem_side::system.l2.cpu_side       141696                       # Cumulative packet size per connected master and slave (bytes)
system.tol2bus.pkt_size_system.cpu07.dcache.mem_side::system.l2.cpu_side        59200                       # Cumulative packet size per connected master and slave (bytes)
system.tol2bus.pkt_size_system.cpu08.icache.mem_side::system.l2.cpu_side       139456                       # Cumulative packet size per connected master and slave (bytes)
system.tol2bus.pkt_size_system.cpu08.dcache.mem_side::system.l2.cpu_side        59968                       # Cumulative packet size per connected master and slave (bytes)
system.tol2bus.pkt_size_system.cpu09.icache.mem_side::system.l2.cpu_side        43264                       # Cumulative packet size per connected master and slave (bytes)
system.tol2bus.pkt_size_system.cpu09.dcache.mem_side::system.l2.cpu_side        28800                       # Cumulative packet size per connected master and slave (bytes)
system.tol2bus.pkt_size_system.cpu10.icache.mem_side::system.l2.cpu_side       142848                       # Cumulative packet size per connected master and slave (bytes)
system.tol2bus.pkt_size_system.cpu10.dcache.mem_side::system.l2.cpu_side        53760                       # Cumulative packet size per connected master and slave (bytes)
system.tol2bus.pkt_size_system.cpu11.icache.mem_side::system.l2.cpu_side       132800                       # Cumulative packet size per connected master and slave (bytes)
system.tol2bus.pkt_size_system.cpu11.dcache.mem_side::system.l2.cpu_side        50624                       # Cumulative packet size per connected master and slave (bytes)
system.tol2bus.pkt_size_system.cpu12.icache.mem_side::system.l2.cpu_side       115136                       # Cumulative packet size per connected master and slave (bytes)
system.tol2bus.pkt_size_system.cpu12.dcache.mem_side::system.l2.cpu_side        44672                       # Cumulative packet size per connected master and slave (bytes)
system.tol2bus.pkt_size_system.cpu13.icache.mem_side::system.l2.cpu_side       138560                       # Cumulative packet size per connected master and slave (bytes)
system.tol2bus.pkt_size_system.cpu13.dcache.mem_side::system.l2.cpu_side        54464                       # Cumulative packet size per connected master and slave (bytes)
system.tol2bus.pkt_size_system.cpu14.icache.mem_side::system.l2.cpu_side       108928                       # Cumulative packet size per connected master and slave (bytes)
system.tol2bus.pkt_size_system.cpu14.dcache.mem_side::system.l2.cpu_side        46976                       # Cumulative packet size per connected master and slave (bytes)
system.tol2bus.pkt_size_system.cpu15.icache.mem_side::system.l2.cpu_side       108928                       # Cumulative packet size per connected master and slave (bytes)
system.tol2bus.pkt_size_system.cpu15.dcache.mem_side::system.l2.cpu_side        46528                       # Cumulative packet size per connected master and slave (bytes)
system.tol2bus.pkt_size::total                4363456                       # Cumulative packet size per connected master and slave (bytes)
system.tol2bus.snoops                           15205                       # Total snoops (count)
system.tol2bus.snoop_fanout::samples            59214                       # Request fanout histogram
system.tol2bus.snoop_fanout::mean            2.462576                       # Request fanout histogram
system.tol2bus.snoop_fanout::stdev           3.760972                       # Request fanout histogram
system.tol2bus.snoop_fanout::underflows             0      0.00%      0.00% # Request fanout histogram
system.tol2bus.snoop_fanout::0                  25283     42.70%     42.70% # Request fanout histogram
system.tol2bus.snoop_fanout::1                  13734     23.19%     65.89% # Request fanout histogram
system.tol2bus.snoop_fanout::2                   4172      7.05%     72.94% # Request fanout histogram
system.tol2bus.snoop_fanout::3                   2456      4.15%     77.08% # Request fanout histogram
system.tol2bus.snoop_fanout::4                   1613      2.72%     79.81% # Request fanout histogram
system.tol2bus.snoop_fanout::5                   1444      2.44%     82.25% # Request fanout histogram
system.tol2bus.snoop_fanout::6                   1415      2.39%     84.64% # Request fanout histogram
system.tol2bus.snoop_fanout::7                   1343      2.27%     86.91% # Request fanout histogram
system.tol2bus.snoop_fanout::8                   1331      2.25%     89.15% # Request fanout histogram
system.tol2bus.snoop_fanout::9                   1223      2.07%     91.22% # Request fanout histogram
system.tol2bus.snoop_fanout::10                  1080      1.82%     93.04% # Request fanout histogram
system.tol2bus.snoop_fanout::11                  1123      1.90%     94.94% # Request fanout histogram
system.tol2bus.snoop_fanout::12                   836      1.41%     96.35% # Request fanout histogram
system.tol2bus.snoop_fanout::13                   812      1.37%     97.72% # Request fanout histogram
system.tol2bus.snoop_fanout::14                   828      1.40%     99.12% # Request fanout histogram
system.tol2bus.snoop_fanout::15                   514      0.87%     99.99% # Request fanout histogram
system.tol2bus.snoop_fanout::16                     7      0.01%    100.00% # Request fanout histogram
system.tol2bus.snoop_fanout::17                     0      0.00%    100.00% # Request fanout histogram
system.tol2bus.snoop_fanout::18                     0      0.00%    100.00% # Request fanout histogram
system.tol2bus.snoop_fanout::19                     0      0.00%    100.00% # Request fanout histogram
system.tol2bus.snoop_fanout::20                     0      0.00%    100.00% # Request fanout histogram
system.tol2bus.snoop_fanout::21                     0      0.00%    100.00% # Request fanout histogram
system.tol2bus.snoop_fanout::22                     0      0.00%    100.00% # Request fanout histogram
system.tol2bus.snoop_fanout::23                     0      0.00%    100.00% # Request fanout histogram
system.tol2bus.snoop_fanout::24                     0      0.00%    100.00% # Request fanout histogram
system.tol2bus.snoop_fanout::25                     0      0.00%    100.00% # Request fanout histogram
system.tol2bus.snoop_fanout::26                     0      0.00%    100.00% # Request fanout histogram
system.tol2bus.snoop_fanout::27                     0      0.00%    100.00% # Request fanout histogram
system.tol2bus.snoop_fanout::28                     0      0.00%    100.00% # Request fanout histogram
system.tol2bus.snoop_fanout::29                     0      0.00%    100.00% # Request fanout histogram
system.tol2bus.snoop_fanout::30                     0      0.00%    100.00% # Request fanout histogram
system.tol2bus.snoop_fanout::31                     0      0.00%    100.00% # Request fanout histogram
system.tol2bus.snoop_fanout::32                     0      0.00%    100.00% # Request fanout histogram
system.tol2bus.snoop_fanout::overflows              0      0.00%    100.00% # Request fanout histogram
system.tol2bus.snoop_fanout::min_value              0                       # Request fanout histogram
system.tol2bus.snoop_fanout::max_value             16                       # Request fanout histogram
system.tol2bus.snoop_fanout::total              59214                       # Request fanout histogram
system.tol2bus.reqLayer0.occupancy          183980735                       # Layer occupancy (ticks)
system.tol2bus.reqLayer0.utilization             13.6                       # Layer utilization (%)
system.tol2bus.respLayer0.occupancy          29697800                       # Layer occupancy (ticks)
system.tol2bus.respLayer0.utilization             2.2                       # Layer utilization (%)
system.tol2bus.respLayer1.occupancy          43925838                       # Layer occupancy (ticks)
system.tol2bus.respLayer1.utilization             3.3                       # Layer utilization (%)
system.tol2bus.respLayer2.occupancy           4029463                       # Layer occupancy (ticks)
system.tol2bus.respLayer2.utilization             0.3                       # Layer utilization (%)
system.tol2bus.respLayer3.occupancy           6034118                       # Layer occupancy (ticks)
system.tol2bus.respLayer3.utilization             0.4                       # Layer utilization (%)
system.tol2bus.respLayer4.occupancy           2736131                       # Layer occupancy (ticks)
system.tol2bus.respLayer4.utilization             0.2                       # Layer utilization (%)
system.tol2bus.respLayer5.occupancy           2760458                       # Layer occupancy (ticks)
system.tol2bus.respLayer5.utilization             0.2                       # Layer utilization (%)
system.tol2bus.respLayer6.occupancy           1842842                       # Layer occupancy (ticks)
system.tol2bus.respLayer6.utilization             0.1                       # Layer utilization (%)
system.tol2bus.respLayer7.occupancy           1771054                       # Layer occupancy (ticks)
system.tol2bus.respLayer7.utilization             0.1                       # Layer utilization (%)
system.tol2bus.respLayer8.occupancy           1664629                       # Layer occupancy (ticks)
system.tol2bus.respLayer8.utilization             0.1                       # Layer utilization (%)
system.tol2bus.respLayer9.occupancy           1727210                       # Layer occupancy (ticks)
system.tol2bus.respLayer9.utilization             0.1                       # Layer utilization (%)
system.tol2bus.respLayer10.occupancy          4097403                       # Layer occupancy (ticks)
system.tol2bus.respLayer10.utilization            0.3                       # Layer utilization (%)
system.tol2bus.respLayer11.occupancy          5431162                       # Layer occupancy (ticks)
system.tol2bus.respLayer11.utilization            0.4                       # Layer utilization (%)
system.tol2bus.respLayer12.occupancy          1984277                       # Layer occupancy (ticks)
system.tol2bus.respLayer12.utilization            0.1                       # Layer utilization (%)
system.tol2bus.respLayer13.occupancy          1749636                       # Layer occupancy (ticks)
system.tol2bus.respLayer13.utilization            0.1                       # Layer utilization (%)
system.tol2bus.respLayer14.occupancy          5109299                       # Layer occupancy (ticks)
system.tol2bus.respLayer14.utilization            0.4                       # Layer utilization (%)
system.tol2bus.respLayer15.occupancy          8069180                       # Layer occupancy (ticks)
system.tol2bus.respLayer15.utilization            0.6                       # Layer utilization (%)
system.tol2bus.respLayer16.occupancy          5060224                       # Layer occupancy (ticks)
system.tol2bus.respLayer16.utilization            0.4                       # Layer utilization (%)
system.tol2bus.respLayer17.occupancy          8024889                       # Layer occupancy (ticks)
system.tol2bus.respLayer17.utilization            0.6                       # Layer utilization (%)
system.tol2bus.respLayer18.occupancy          2139473                       # Layer occupancy (ticks)
system.tol2bus.respLayer18.utilization            0.2                       # Layer utilization (%)
system.tol2bus.respLayer19.occupancy          1766066                       # Layer occupancy (ticks)
system.tol2bus.respLayer19.utilization            0.1                       # Layer utilization (%)
system.tol2bus.respLayer20.occupancy          5180138                       # Layer occupancy (ticks)
system.tol2bus.respLayer20.utilization            0.4                       # Layer utilization (%)
system.tol2bus.respLayer21.occupancy          7361261                       # Layer occupancy (ticks)
system.tol2bus.respLayer21.utilization            0.5                       # Layer utilization (%)
system.tol2bus.respLayer22.occupancy          4860319                       # Layer occupancy (ticks)
system.tol2bus.respLayer22.utilization            0.4                       # Layer utilization (%)
system.tol2bus.respLayer23.occupancy          6712680                       # Layer occupancy (ticks)
system.tol2bus.respLayer23.utilization            0.5                       # Layer utilization (%)
system.tol2bus.respLayer24.occupancy          4340362                       # Layer occupancy (ticks)
system.tol2bus.respLayer24.utilization            0.3                       # Layer utilization (%)
system.tol2bus.respLayer25.occupancy          5675852                       # Layer occupancy (ticks)
system.tol2bus.respLayer25.utilization            0.4                       # Layer utilization (%)
system.tol2bus.respLayer26.occupancy          5029264                       # Layer occupancy (ticks)
system.tol2bus.respLayer26.utilization            0.4                       # Layer utilization (%)
system.tol2bus.respLayer27.occupancy          7028390                       # Layer occupancy (ticks)
system.tol2bus.respLayer27.utilization            0.5                       # Layer utilization (%)
system.tol2bus.respLayer28.occupancy          4147419                       # Layer occupancy (ticks)
system.tol2bus.respLayer28.utilization            0.3                       # Layer utilization (%)
system.tol2bus.respLayer29.occupancy          4543805                       # Layer occupancy (ticks)
system.tol2bus.respLayer29.utilization            0.3                       # Layer utilization (%)
system.tol2bus.respLayer30.occupancy          4135836                       # Layer occupancy (ticks)
system.tol2bus.respLayer30.utilization            0.3                       # Layer utilization (%)
system.tol2bus.respLayer31.occupancy          6867919                       # Layer occupancy (ticks)
system.tol2bus.respLayer31.utilization            0.5                       # Layer utilization (%)

---------- End Simulation Statistics   ----------
