
---------- Begin Simulation Statistics ----------
sim_seconds                                  0.001271                       # Number of seconds simulated
sim_ticks                                  1270599220                       # Number of ticks simulated
final_tick                                 1270599220                       # Number of ticks from beginning of simulation (restored from checkpoints and never reset)
sim_freq                                 1000000000000                       # Frequency of simulated ticks
host_inst_rate                                 226120                       # Simulator instruction rate (inst/s)
host_op_rate                                   226119                       # Simulator op (including micro ops) rate (op/s)
host_tick_rate                              126202848                       # Simulator tick rate (ticks/s)
host_mem_usage                                 694964                       # Number of bytes of host memory used
host_seconds                                    10.07                       # Real time elapsed on the host
sim_insts                                     2276545                       # Number of instructions simulated
sim_ops                                       2276545                       # Number of ops (including micro ops) simulated
system.voltage_domain.voltage                       1                       # Voltage in Volts
system.clk_domain.clock                          1000                       # Clock period in ticks
system.mem_ctrls.bytes_read::cpu00.inst        123456                       # Number of bytes read from this memory
system.mem_ctrls.bytes_read::cpu00.data        378176                       # Number of bytes read from this memory
system.mem_ctrls.bytes_read::cpu01.inst         11712                       # Number of bytes read from this memory
system.mem_ctrls.bytes_read::cpu01.data          6592                       # Number of bytes read from this memory
system.mem_ctrls.bytes_read::cpu02.inst          1408                       # Number of bytes read from this memory
system.mem_ctrls.bytes_read::cpu02.data          4736                       # Number of bytes read from this memory
system.mem_ctrls.bytes_read::cpu03.inst           512                       # Number of bytes read from this memory
system.mem_ctrls.bytes_read::cpu03.data          4864                       # Number of bytes read from this memory
system.mem_ctrls.bytes_read::cpu04.inst          3072                       # Number of bytes read from this memory
system.mem_ctrls.bytes_read::cpu04.data          6400                       # Number of bytes read from this memory
system.mem_ctrls.bytes_read::cpu05.inst           448                       # Number of bytes read from this memory
system.mem_ctrls.bytes_read::cpu05.data          6080                       # Number of bytes read from this memory
system.mem_ctrls.bytes_read::cpu06.inst          1216                       # Number of bytes read from this memory
system.mem_ctrls.bytes_read::cpu06.data          6720                       # Number of bytes read from this memory
system.mem_ctrls.bytes_read::cpu07.inst           320                       # Number of bytes read from this memory
system.mem_ctrls.bytes_read::cpu07.data          6016                       # Number of bytes read from this memory
system.mem_ctrls.bytes_read::cpu08.inst           448                       # Number of bytes read from this memory
system.mem_ctrls.bytes_read::cpu08.data          6592                       # Number of bytes read from this memory
system.mem_ctrls.bytes_read::cpu09.inst          3712                       # Number of bytes read from this memory
system.mem_ctrls.bytes_read::cpu09.data          5504                       # Number of bytes read from this memory
system.mem_ctrls.bytes_read::cpu10.inst           512                       # Number of bytes read from this memory
system.mem_ctrls.bytes_read::cpu10.data          4672                       # Number of bytes read from this memory
system.mem_ctrls.bytes_read::cpu11.inst           448                       # Number of bytes read from this memory
system.mem_ctrls.bytes_read::cpu11.data          6848                       # Number of bytes read from this memory
system.mem_ctrls.bytes_read::cpu12.inst          1280                       # Number of bytes read from this memory
system.mem_ctrls.bytes_read::cpu12.data          5824                       # Number of bytes read from this memory
system.mem_ctrls.bytes_read::cpu13.inst          3392                       # Number of bytes read from this memory
system.mem_ctrls.bytes_read::cpu13.data          6144                       # Number of bytes read from this memory
system.mem_ctrls.bytes_read::cpu14.inst          1088                       # Number of bytes read from this memory
system.mem_ctrls.bytes_read::cpu14.data          6400                       # Number of bytes read from this memory
system.mem_ctrls.bytes_read::cpu15.inst           640                       # Number of bytes read from this memory
system.mem_ctrls.bytes_read::cpu15.data          5056                       # Number of bytes read from this memory
system.mem_ctrls.bytes_read::total             620288                       # Number of bytes read from this memory
system.mem_ctrls.bytes_inst_read::cpu00.inst       123456                       # Number of instructions bytes read from this memory
system.mem_ctrls.bytes_inst_read::cpu01.inst        11712                       # Number of instructions bytes read from this memory
system.mem_ctrls.bytes_inst_read::cpu02.inst         1408                       # Number of instructions bytes read from this memory
system.mem_ctrls.bytes_inst_read::cpu03.inst          512                       # Number of instructions bytes read from this memory
system.mem_ctrls.bytes_inst_read::cpu04.inst         3072                       # Number of instructions bytes read from this memory
system.mem_ctrls.bytes_inst_read::cpu05.inst          448                       # Number of instructions bytes read from this memory
system.mem_ctrls.bytes_inst_read::cpu06.inst         1216                       # Number of instructions bytes read from this memory
system.mem_ctrls.bytes_inst_read::cpu07.inst          320                       # Number of instructions bytes read from this memory
system.mem_ctrls.bytes_inst_read::cpu08.inst          448                       # Number of instructions bytes read from this memory
system.mem_ctrls.bytes_inst_read::cpu09.inst         3712                       # Number of instructions bytes read from this memory
system.mem_ctrls.bytes_inst_read::cpu10.inst          512                       # Number of instructions bytes read from this memory
system.mem_ctrls.bytes_inst_read::cpu11.inst          448                       # Number of instructions bytes read from this memory
system.mem_ctrls.bytes_inst_read::cpu12.inst         1280                       # Number of instructions bytes read from this memory
system.mem_ctrls.bytes_inst_read::cpu13.inst         3392                       # Number of instructions bytes read from this memory
system.mem_ctrls.bytes_inst_read::cpu14.inst         1088                       # Number of instructions bytes read from this memory
system.mem_ctrls.bytes_inst_read::cpu15.inst          640                       # Number of instructions bytes read from this memory
system.mem_ctrls.bytes_inst_read::total        153664                       # Number of instructions bytes read from this memory
system.mem_ctrls.bytes_written::writebacks        76672                       # Number of bytes written to this memory
system.mem_ctrls.bytes_written::total           76672                       # Number of bytes written to this memory
system.mem_ctrls.num_reads::cpu00.inst           1929                       # Number of read requests responded to by this memory
system.mem_ctrls.num_reads::cpu00.data           5909                       # Number of read requests responded to by this memory
system.mem_ctrls.num_reads::cpu01.inst            183                       # Number of read requests responded to by this memory
system.mem_ctrls.num_reads::cpu01.data            103                       # Number of read requests responded to by this memory
system.mem_ctrls.num_reads::cpu02.inst             22                       # Number of read requests responded to by this memory
system.mem_ctrls.num_reads::cpu02.data             74                       # Number of read requests responded to by this memory
system.mem_ctrls.num_reads::cpu03.inst              8                       # Number of read requests responded to by this memory
system.mem_ctrls.num_reads::cpu03.data             76                       # Number of read requests responded to by this memory
system.mem_ctrls.num_reads::cpu04.inst             48                       # Number of read requests responded to by this memory
system.mem_ctrls.num_reads::cpu04.data            100                       # Number of read requests responded to by this memory
system.mem_ctrls.num_reads::cpu05.inst              7                       # Number of read requests responded to by this memory
system.mem_ctrls.num_reads::cpu05.data             95                       # Number of read requests responded to by this memory
system.mem_ctrls.num_reads::cpu06.inst             19                       # Number of read requests responded to by this memory
system.mem_ctrls.num_reads::cpu06.data            105                       # Number of read requests responded to by this memory
system.mem_ctrls.num_reads::cpu07.inst              5                       # Number of read requests responded to by this memory
system.mem_ctrls.num_reads::cpu07.data             94                       # Number of read requests responded to by this memory
system.mem_ctrls.num_reads::cpu08.inst              7                       # Number of read requests responded to by this memory
system.mem_ctrls.num_reads::cpu08.data            103                       # Number of read requests responded to by this memory
system.mem_ctrls.num_reads::cpu09.inst             58                       # Number of read requests responded to by this memory
system.mem_ctrls.num_reads::cpu09.data             86                       # Number of read requests responded to by this memory
system.mem_ctrls.num_reads::cpu10.inst              8                       # Number of read requests responded to by this memory
system.mem_ctrls.num_reads::cpu10.data             73                       # Number of read requests responded to by this memory
system.mem_ctrls.num_reads::cpu11.inst              7                       # Number of read requests responded to by this memory
system.mem_ctrls.num_reads::cpu11.data            107                       # Number of read requests responded to by this memory
system.mem_ctrls.num_reads::cpu12.inst             20                       # Number of read requests responded to by this memory
system.mem_ctrls.num_reads::cpu12.data             91                       # Number of read requests responded to by this memory
system.mem_ctrls.num_reads::cpu13.inst             53                       # Number of read requests responded to by this memory
system.mem_ctrls.num_reads::cpu13.data             96                       # Number of read requests responded to by this memory
system.mem_ctrls.num_reads::cpu14.inst             17                       # Number of read requests responded to by this memory
system.mem_ctrls.num_reads::cpu14.data            100                       # Number of read requests responded to by this memory
system.mem_ctrls.num_reads::cpu15.inst             10                       # Number of read requests responded to by this memory
system.mem_ctrls.num_reads::cpu15.data             79                       # Number of read requests responded to by this memory
system.mem_ctrls.num_reads::total                9692                       # Number of read requests responded to by this memory
system.mem_ctrls.num_writes::writebacks          1198                       # Number of write requests responded to by this memory
system.mem_ctrls.num_writes::total               1198                       # Number of write requests responded to by this memory
system.mem_ctrls.bw_read::cpu00.inst         97163604                       # Total read bandwidth from this memory (bytes/s)
system.mem_ctrls.bw_read::cpu00.data        297635945                       # Total read bandwidth from this memory (bytes/s)
system.mem_ctrls.bw_read::cpu01.inst          9217698                       # Total read bandwidth from this memory (bytes/s)
system.mem_ctrls.bw_read::cpu01.data          5188103                       # Total read bandwidth from this memory (bytes/s)
system.mem_ctrls.bw_read::cpu02.inst          1108139                       # Total read bandwidth from this memory (bytes/s)
system.mem_ctrls.bw_read::cpu02.data          3727375                       # Total read bandwidth from this memory (bytes/s)
system.mem_ctrls.bw_read::cpu03.inst           402959                       # Total read bandwidth from this memory (bytes/s)
system.mem_ctrls.bw_read::cpu03.data          3828115                       # Total read bandwidth from this memory (bytes/s)
system.mem_ctrls.bw_read::cpu04.inst          2417757                       # Total read bandwidth from this memory (bytes/s)
system.mem_ctrls.bw_read::cpu04.data          5036993                       # Total read bandwidth from this memory (bytes/s)
system.mem_ctrls.bw_read::cpu05.inst           352590                       # Total read bandwidth from this memory (bytes/s)
system.mem_ctrls.bw_read::cpu05.data          4785144                       # Total read bandwidth from this memory (bytes/s)
system.mem_ctrls.bw_read::cpu06.inst           957029                       # Total read bandwidth from this memory (bytes/s)
system.mem_ctrls.bw_read::cpu06.data          5288843                       # Total read bandwidth from this memory (bytes/s)
system.mem_ctrls.bw_read::cpu07.inst           251850                       # Total read bandwidth from this memory (bytes/s)
system.mem_ctrls.bw_read::cpu07.data          4734774                       # Total read bandwidth from this memory (bytes/s)
system.mem_ctrls.bw_read::cpu08.inst           352590                       # Total read bandwidth from this memory (bytes/s)
system.mem_ctrls.bw_read::cpu08.data          5188103                       # Total read bandwidth from this memory (bytes/s)
system.mem_ctrls.bw_read::cpu09.inst          2921456                       # Total read bandwidth from this memory (bytes/s)
system.mem_ctrls.bw_read::cpu09.data          4331814                       # Total read bandwidth from this memory (bytes/s)
system.mem_ctrls.bw_read::cpu10.inst           402959                       # Total read bandwidth from this memory (bytes/s)
system.mem_ctrls.bw_read::cpu10.data          3677005                       # Total read bandwidth from this memory (bytes/s)
system.mem_ctrls.bw_read::cpu11.inst           352590                       # Total read bandwidth from this memory (bytes/s)
system.mem_ctrls.bw_read::cpu11.data          5389583                       # Total read bandwidth from this memory (bytes/s)
system.mem_ctrls.bw_read::cpu12.inst          1007399                       # Total read bandwidth from this memory (bytes/s)
system.mem_ctrls.bw_read::cpu12.data          4583664                       # Total read bandwidth from this memory (bytes/s)
system.mem_ctrls.bw_read::cpu13.inst          2669607                       # Total read bandwidth from this memory (bytes/s)
system.mem_ctrls.bw_read::cpu13.data          4835514                       # Total read bandwidth from this memory (bytes/s)
system.mem_ctrls.bw_read::cpu14.inst           856289                       # Total read bandwidth from this memory (bytes/s)
system.mem_ctrls.bw_read::cpu14.data          5036993                       # Total read bandwidth from this memory (bytes/s)
system.mem_ctrls.bw_read::cpu15.inst           503699                       # Total read bandwidth from this memory (bytes/s)
system.mem_ctrls.bw_read::cpu15.data          3979225                       # Total read bandwidth from this memory (bytes/s)
system.mem_ctrls.bw_read::total             488185409                       # Total read bandwidth from this memory (bytes/s)
system.mem_ctrls.bw_inst_read::cpu00.inst     97163604                       # Instruction read bandwidth from this memory (bytes/s)
system.mem_ctrls.bw_inst_read::cpu01.inst      9217698                       # Instruction read bandwidth from this memory (bytes/s)
system.mem_ctrls.bw_inst_read::cpu02.inst      1108139                       # Instruction read bandwidth from this memory (bytes/s)
system.mem_ctrls.bw_inst_read::cpu03.inst       402959                       # Instruction read bandwidth from this memory (bytes/s)
system.mem_ctrls.bw_inst_read::cpu04.inst      2417757                       # Instruction read bandwidth from this memory (bytes/s)
system.mem_ctrls.bw_inst_read::cpu05.inst       352590                       # Instruction read bandwidth from this memory (bytes/s)
system.mem_ctrls.bw_inst_read::cpu06.inst       957029                       # Instruction read bandwidth from this memory (bytes/s)
system.mem_ctrls.bw_inst_read::cpu07.inst       251850                       # Instruction read bandwidth from this memory (bytes/s)
system.mem_ctrls.bw_inst_read::cpu08.inst       352590                       # Instruction read bandwidth from this memory (bytes/s)
system.mem_ctrls.bw_inst_read::cpu09.inst      2921456                       # Instruction read bandwidth from this memory (bytes/s)
system.mem_ctrls.bw_inst_read::cpu10.inst       402959                       # Instruction read bandwidth from this memory (bytes/s)
system.mem_ctrls.bw_inst_read::cpu11.inst       352590                       # Instruction read bandwidth from this memory (bytes/s)
system.mem_ctrls.bw_inst_read::cpu12.inst      1007399                       # Instruction read bandwidth from this memory (bytes/s)
system.mem_ctrls.bw_inst_read::cpu13.inst      2669607                       # Instruction read bandwidth from this memory (bytes/s)
system.mem_ctrls.bw_inst_read::cpu14.inst       856289                       # Instruction read bandwidth from this memory (bytes/s)
system.mem_ctrls.bw_inst_read::cpu15.inst       503699                       # Instruction read bandwidth from this memory (bytes/s)
system.mem_ctrls.bw_inst_read::total        120938214                       # Instruction read bandwidth from this memory (bytes/s)
system.mem_ctrls.bw_write::writebacks        60343182                       # Write bandwidth from this memory (bytes/s)
system.mem_ctrls.bw_write::total             60343182                       # Write bandwidth from this memory (bytes/s)
system.mem_ctrls.bw_total::writebacks        60343182                       # Total bandwidth to/from this memory (bytes/s)
system.mem_ctrls.bw_total::cpu00.inst        97163604                       # Total bandwidth to/from this memory (bytes/s)
system.mem_ctrls.bw_total::cpu00.data       297635945                       # Total bandwidth to/from this memory (bytes/s)
system.mem_ctrls.bw_total::cpu01.inst         9217698                       # Total bandwidth to/from this memory (bytes/s)
system.mem_ctrls.bw_total::cpu01.data         5188103                       # Total bandwidth to/from this memory (bytes/s)
system.mem_ctrls.bw_total::cpu02.inst         1108139                       # Total bandwidth to/from this memory (bytes/s)
system.mem_ctrls.bw_total::cpu02.data         3727375                       # Total bandwidth to/from this memory (bytes/s)
system.mem_ctrls.bw_total::cpu03.inst          402959                       # Total bandwidth to/from this memory (bytes/s)
system.mem_ctrls.bw_total::cpu03.data         3828115                       # Total bandwidth to/from this memory (bytes/s)
system.mem_ctrls.bw_total::cpu04.inst         2417757                       # Total bandwidth to/from this memory (bytes/s)
system.mem_ctrls.bw_total::cpu04.data         5036993                       # Total bandwidth to/from this memory (bytes/s)
system.mem_ctrls.bw_total::cpu05.inst          352590                       # Total bandwidth to/from this memory (bytes/s)
system.mem_ctrls.bw_total::cpu05.data         4785144                       # Total bandwidth to/from this memory (bytes/s)
system.mem_ctrls.bw_total::cpu06.inst          957029                       # Total bandwidth to/from this memory (bytes/s)
system.mem_ctrls.bw_total::cpu06.data         5288843                       # Total bandwidth to/from this memory (bytes/s)
system.mem_ctrls.bw_total::cpu07.inst          251850                       # Total bandwidth to/from this memory (bytes/s)
system.mem_ctrls.bw_total::cpu07.data         4734774                       # Total bandwidth to/from this memory (bytes/s)
system.mem_ctrls.bw_total::cpu08.inst          352590                       # Total bandwidth to/from this memory (bytes/s)
system.mem_ctrls.bw_total::cpu08.data         5188103                       # Total bandwidth to/from this memory (bytes/s)
system.mem_ctrls.bw_total::cpu09.inst         2921456                       # Total bandwidth to/from this memory (bytes/s)
system.mem_ctrls.bw_total::cpu09.data         4331814                       # Total bandwidth to/from this memory (bytes/s)
system.mem_ctrls.bw_total::cpu10.inst          402959                       # Total bandwidth to/from this memory (bytes/s)
system.mem_ctrls.bw_total::cpu10.data         3677005                       # Total bandwidth to/from this memory (bytes/s)
system.mem_ctrls.bw_total::cpu11.inst          352590                       # Total bandwidth to/from this memory (bytes/s)
system.mem_ctrls.bw_total::cpu11.data         5389583                       # Total bandwidth to/from this memory (bytes/s)
system.mem_ctrls.bw_total::cpu12.inst         1007399                       # Total bandwidth to/from this memory (bytes/s)
system.mem_ctrls.bw_total::cpu12.data         4583664                       # Total bandwidth to/from this memory (bytes/s)
system.mem_ctrls.bw_total::cpu13.inst         2669607                       # Total bandwidth to/from this memory (bytes/s)
system.mem_ctrls.bw_total::cpu13.data         4835514                       # Total bandwidth to/from this memory (bytes/s)
system.mem_ctrls.bw_total::cpu14.inst          856289                       # Total bandwidth to/from this memory (bytes/s)
system.mem_ctrls.bw_total::cpu14.data         5036993                       # Total bandwidth to/from this memory (bytes/s)
system.mem_ctrls.bw_total::cpu15.inst          503699                       # Total bandwidth to/from this memory (bytes/s)
system.mem_ctrls.bw_total::cpu15.data         3979225                       # Total bandwidth to/from this memory (bytes/s)
system.mem_ctrls.bw_total::total            548528591                       # Total bandwidth to/from this memory (bytes/s)
system.cpu00.branchPred.lookups                132186                       # Number of BP lookups
system.cpu00.branchPred.condPredicted           73536                       # Number of conditional branches predicted
system.cpu00.branchPred.condIncorrect            5644                       # Number of conditional branches incorrect
system.cpu00.branchPred.BTBLookups              89812                       # Number of BTB lookups
system.cpu00.branchPred.BTBHits                 66221                       # Number of BTB hits
system.cpu00.branchPred.BTBCorrect                  0                       # Number of correct BTB predictions (this stat may not work properly.
system.cpu00.branchPred.BTBHitPct           73.732909                       # BTB Hit Percentage
system.cpu00.branchPred.usedRAS                 26399                       # Number of times the RAS was used to get a target.
system.cpu00.branchPred.RASInCorrect               86                       # Number of incorrect RAS predictions.
system.cpu00.branchPred.indirectLookups          3652                       # Number of indirect predictor lookups.
system.cpu00.branchPred.indirectHits             2882                       # Number of indirect target hits.
system.cpu00.branchPred.indirectMisses            770                       # Number of indirect misses.
system.cpu00.branchPredindirectMispredicted          257                       # Number of mispredicted indirect branches.
system.cpu_voltage_domain.voltage                   1                       # Voltage in Volts
system.cpu_clk_domain.clock                      1180                       # Clock period in ticks
system.cpu00.dtb.fetch_hits                         0                       # ITB hits
system.cpu00.dtb.fetch_misses                       0                       # ITB misses
system.cpu00.dtb.fetch_acv                          0                       # ITB acv
system.cpu00.dtb.fetch_accesses                     0                       # ITB accesses
system.cpu00.dtb.read_hits                     180015                       # DTB read hits
system.cpu00.dtb.read_misses                      617                       # DTB read misses
system.cpu00.dtb.read_acv                           0                       # DTB read access violations
system.cpu00.dtb.read_accesses                 180632                       # DTB read accesses
system.cpu00.dtb.write_hits                    128065                       # DTB write hits
system.cpu00.dtb.write_misses                    1071                       # DTB write misses
system.cpu00.dtb.write_acv                          0                       # DTB write access violations
system.cpu00.dtb.write_accesses                129136                       # DTB write accesses
system.cpu00.dtb.data_hits                     308080                       # DTB hits
system.cpu00.dtb.data_misses                     1688                       # DTB misses
system.cpu00.dtb.data_acv                           0                       # DTB access violations
system.cpu00.dtb.data_accesses                 309768                       # DTB accesses
system.cpu00.itb.fetch_hits                    148890                       # ITB hits
system.cpu00.itb.fetch_misses                     156                       # ITB misses
system.cpu00.itb.fetch_acv                          0                       # ITB acv
system.cpu00.itb.fetch_accesses                149046                       # ITB accesses
system.cpu00.itb.read_hits                          0                       # DTB read hits
system.cpu00.itb.read_misses                        0                       # DTB read misses
system.cpu00.itb.read_acv                           0                       # DTB read access violations
system.cpu00.itb.read_accesses                      0                       # DTB read accesses
system.cpu00.itb.write_hits                         0                       # DTB write hits
system.cpu00.itb.write_misses                       0                       # DTB write misses
system.cpu00.itb.write_acv                          0                       # DTB write access violations
system.cpu00.itb.write_accesses                     0                       # DTB write accesses
system.cpu00.itb.data_hits                          0                       # DTB hits
system.cpu00.itb.data_misses                        0                       # DTB misses
system.cpu00.itb.data_acv                           0                       # DTB access violations
system.cpu00.itb.data_accesses                      0                       # DTB accesses
system.cpu00.workload.num_syscalls               2233                       # Number of system calls
system.cpu00.numCycles                        1003284                       # number of cpu cycles simulated
system.cpu00.numWorkItemsStarted                    0                       # number of work items this cpu started
system.cpu00.numWorkItemsCompleted                  0                       # number of work items this cpu completed
system.cpu00.fetch.icacheStallCycles            76663                       # Number of cycles fetch is stalled on an Icache miss
system.cpu00.fetch.Insts                      1187441                       # Number of instructions fetch has processed
system.cpu00.fetch.Branches                    132186                       # Number of branches that fetch encountered
system.cpu00.fetch.predictedBranches            95502                       # Number of branches that fetch has predicted taken
system.cpu00.fetch.Cycles                      711350                       # Number of cycles fetch has run and was not squashing or blocked
system.cpu00.fetch.SquashCycles                 12658                       # Number of cycles fetch has spent squashing
system.cpu00.fetch.MiscStallCycles                423                       # Number of cycles fetch has spent waiting on interrupts, or bad addresses, or out of MSHRs
system.cpu00.fetch.PendingTrapStallCycles         6056                       # Number of stall cycles due to pending traps
system.cpu00.fetch.IcacheWaitRetryStallCycles          645                       # Number of stall cycles due to full MSHR
system.cpu00.fetch.CacheLines                  148890                       # Number of cache lines fetched
system.cpu00.fetch.IcacheSquashes                2570                       # Number of outstanding Icache misses that were squashed
system.cpu00.fetch.rateDist::samples           801466                       # Number of instructions fetched each cycle (Total)
system.cpu00.fetch.rateDist::mean            1.481586                       # Number of instructions fetched each cycle (Total)
system.cpu00.fetch.rateDist::stdev           2.740537                       # Number of instructions fetched each cycle (Total)
system.cpu00.fetch.rateDist::underflows             0      0.00%      0.00% # Number of instructions fetched each cycle (Total)
system.cpu00.fetch.rateDist::0                 584304     72.90%     72.90% # Number of instructions fetched each cycle (Total)
system.cpu00.fetch.rateDist::1                  16305      2.03%     74.94% # Number of instructions fetched each cycle (Total)
system.cpu00.fetch.rateDist::2                  17333      2.16%     77.10% # Number of instructions fetched each cycle (Total)
system.cpu00.fetch.rateDist::3                  16865      2.10%     79.21% # Number of instructions fetched each cycle (Total)
system.cpu00.fetch.rateDist::4                  37880      4.73%     83.93% # Number of instructions fetched each cycle (Total)
system.cpu00.fetch.rateDist::5                  15655      1.95%     85.89% # Number of instructions fetched each cycle (Total)
system.cpu00.fetch.rateDist::6                  18801      2.35%     88.23% # Number of instructions fetched each cycle (Total)
system.cpu00.fetch.rateDist::7                  11310      1.41%     89.64% # Number of instructions fetched each cycle (Total)
system.cpu00.fetch.rateDist::8                  83013     10.36%    100.00% # Number of instructions fetched each cycle (Total)
system.cpu00.fetch.rateDist::overflows              0      0.00%    100.00% # Number of instructions fetched each cycle (Total)
system.cpu00.fetch.rateDist::min_value              0                       # Number of instructions fetched each cycle (Total)
system.cpu00.fetch.rateDist::max_value              8                       # Number of instructions fetched each cycle (Total)
system.cpu00.fetch.rateDist::total             801466                       # Number of instructions fetched each cycle (Total)
system.cpu00.fetch.branchRate                0.131753                       # Number of branch fetches per cycle
system.cpu00.fetch.rate                      1.183554                       # Number of inst fetches per cycle
system.cpu00.decode.IdleCycles                  85060                       # Number of cycles decode is idle
system.cpu00.decode.BlockedCycles              549229                       # Number of cycles decode is blocked
system.cpu00.decode.RunCycles                  129610                       # Number of cycles decode is running
system.cpu00.decode.UnblockCycles               32973                       # Number of cycles decode is unblocking
system.cpu00.decode.SquashCycles                 4594                       # Number of cycles decode is squashing
system.cpu00.decode.BranchResolved              26451                       # Number of times decode resolved a branch
system.cpu00.decode.BranchMispred                1790                       # Number of times decode detected a branch misprediction
system.cpu00.decode.DecodedInsts              1123774                       # Number of instructions handled by decode
system.cpu00.decode.SquashedInsts                7211                       # Number of squashed instructions handled by decode
system.cpu00.rename.SquashCycles                 4594                       # Number of cycles rename is squashing
system.cpu00.rename.IdleCycles                 100836                       # Number of cycles rename is idle
system.cpu00.rename.BlockCycles                 83878                       # Number of cycles rename is blocking
system.cpu00.rename.serializeStallCycles       217050                       # count of cycles rename stalled for serializing inst
system.cpu00.rename.RunCycles                  146962                       # Number of cycles rename is running
system.cpu00.rename.UnblockCycles              248146                       # Number of cycles rename is unblocking
system.cpu00.rename.RenamedInsts              1104464                       # Number of instructions processed by rename
system.cpu00.rename.ROBFullEvents                2788                       # Number of times rename has blocked due to ROB full
system.cpu00.rename.IQFullEvents                21963                       # Number of times rename has blocked due to IQ full
system.cpu00.rename.LQFullEvents                 2209                       # Number of times rename has blocked due to LQ full
system.cpu00.rename.SQFullEvents               213501                       # Number of times rename has blocked due to SQ full
system.cpu00.rename.RenamedOperands            757219                       # Number of destination operands rename has renamed
system.cpu00.rename.RenameLookups             1367861                       # Number of register rename lookups that rename has made
system.cpu00.rename.int_rename_lookups        1209767                       # Number of integer rename lookups
system.cpu00.rename.fp_rename_lookups          155807                       # Number of floating rename lookups
system.cpu00.rename.CommittedMaps              668767                       # Number of HB maps that are committed
system.cpu00.rename.UndoneMaps                  88452                       # Number of HB maps that are undone due to squashing
system.cpu00.rename.serializingInsts             4041                       # count of serializing insts renamed
system.cpu00.rename.tempSerializingInsts         1666                       # count of temporary serializing insts renamed
system.cpu00.rename.skidInsts                  147510                       # count of insts added to the skid buffer
system.cpu00.memDep0.insertedLoads             179225                       # Number of loads inserted to the mem dependence unit.
system.cpu00.memDep0.insertedStores            135414                       # Number of stores inserted to the mem dependence unit.
system.cpu00.memDep0.conflictingLoads           31894                       # Number of conflicting loads.
system.cpu00.memDep0.conflictingStores          11979                       # Number of conflicting stores.
system.cpu00.iq.iqInstsAdded                   967586                       # Number of instructions added to the IQ (excludes non-spec)
system.cpu00.iq.iqNonSpecInstsAdded              2750                       # Number of non-speculative instructions added to the IQ
system.cpu00.iq.iqInstsIssued                  951012                       # Number of instructions issued
system.cpu00.iq.iqSquashedInstsIssued            1566                       # Number of squashed instructions issued
system.cpu00.iq.iqSquashedInstsExamined        100542                       # Number of squashed instructions iterated over during squash; mainly for profiling
system.cpu00.iq.iqSquashedOperandsExamined        49979                       # Number of squashed operands that are examined and possibly removed from graph
system.cpu00.iq.iqSquashedNonSpecRemoved          381                       # Number of squashed non-spec instructions that were removed
system.cpu00.iq.issued_per_cycle::samples       801466                       # Number of insts issued each cycle
system.cpu00.iq.issued_per_cycle::mean       1.186591                       # Number of insts issued each cycle
system.cpu00.iq.issued_per_cycle::stdev      1.953396                       # Number of insts issued each cycle
system.cpu00.iq.issued_per_cycle::underflows            0      0.00%      0.00% # Number of insts issued each cycle
system.cpu00.iq.issued_per_cycle::0            505723     63.10%     63.10% # Number of insts issued each cycle
system.cpu00.iq.issued_per_cycle::1             72492      9.04%     72.14% # Number of insts issued each cycle
system.cpu00.iq.issued_per_cycle::2             60139      7.50%     79.65% # Number of insts issued each cycle
system.cpu00.iq.issued_per_cycle::3             44624      5.57%     85.22% # Number of insts issued each cycle
system.cpu00.iq.issued_per_cycle::4             42999      5.37%     90.58% # Number of insts issued each cycle
system.cpu00.iq.issued_per_cycle::5             28621      3.57%     94.15% # Number of insts issued each cycle
system.cpu00.iq.issued_per_cycle::6             27029      3.37%     97.52% # Number of insts issued each cycle
system.cpu00.iq.issued_per_cycle::7             11617      1.45%     98.97% # Number of insts issued each cycle
system.cpu00.iq.issued_per_cycle::8              8222      1.03%    100.00% # Number of insts issued each cycle
system.cpu00.iq.issued_per_cycle::overflows            0      0.00%    100.00% # Number of insts issued each cycle
system.cpu00.iq.issued_per_cycle::min_value            0                       # Number of insts issued each cycle
system.cpu00.iq.issued_per_cycle::max_value            8                       # Number of insts issued each cycle
system.cpu00.iq.issued_per_cycle::total        801466                       # Number of insts issued each cycle
system.cpu00.iq.fu_full::No_OpClass                 0      0.00%      0.00% # attempts to use FU when none available
system.cpu00.iq.fu_full::IntAlu                  5067     16.38%     16.38% # attempts to use FU when none available
system.cpu00.iq.fu_full::IntMult                 4097     13.24%     29.62% # attempts to use FU when none available
system.cpu00.iq.fu_full::IntDiv                     0      0.00%     29.62% # attempts to use FU when none available
system.cpu00.iq.fu_full::FloatAdd                  85      0.27%     29.90% # attempts to use FU when none available
system.cpu00.iq.fu_full::FloatCmp                   0      0.00%     29.90% # attempts to use FU when none available
system.cpu00.iq.fu_full::FloatCvt                   0      0.00%     29.90% # attempts to use FU when none available
system.cpu00.iq.fu_full::FloatMult               5923     19.15%     49.04% # attempts to use FU when none available
system.cpu00.iq.fu_full::FloatDiv                   0      0.00%     49.04% # attempts to use FU when none available
system.cpu00.iq.fu_full::FloatSqrt                  0      0.00%     49.04% # attempts to use FU when none available
system.cpu00.iq.fu_full::SimdAdd                    0      0.00%     49.04% # attempts to use FU when none available
system.cpu00.iq.fu_full::SimdAddAcc                 0      0.00%     49.04% # attempts to use FU when none available
system.cpu00.iq.fu_full::SimdAlu                    0      0.00%     49.04% # attempts to use FU when none available
system.cpu00.iq.fu_full::SimdCmp                    0      0.00%     49.04% # attempts to use FU when none available
system.cpu00.iq.fu_full::SimdCvt                    0      0.00%     49.04% # attempts to use FU when none available
system.cpu00.iq.fu_full::SimdMisc                   0      0.00%     49.04% # attempts to use FU when none available
system.cpu00.iq.fu_full::SimdMult                   0      0.00%     49.04% # attempts to use FU when none available
system.cpu00.iq.fu_full::SimdMultAcc                0      0.00%     49.04% # attempts to use FU when none available
system.cpu00.iq.fu_full::SimdShift                  0      0.00%     49.04% # attempts to use FU when none available
system.cpu00.iq.fu_full::SimdShiftAcc               0      0.00%     49.04% # attempts to use FU when none available
system.cpu00.iq.fu_full::SimdSqrt                   0      0.00%     49.04% # attempts to use FU when none available
system.cpu00.iq.fu_full::SimdFloatAdd               0      0.00%     49.04% # attempts to use FU when none available
system.cpu00.iq.fu_full::SimdFloatAlu               0      0.00%     49.04% # attempts to use FU when none available
system.cpu00.iq.fu_full::SimdFloatCmp               0      0.00%     49.04% # attempts to use FU when none available
system.cpu00.iq.fu_full::SimdFloatCvt               0      0.00%     49.04% # attempts to use FU when none available
system.cpu00.iq.fu_full::SimdFloatDiv               0      0.00%     49.04% # attempts to use FU when none available
system.cpu00.iq.fu_full::SimdFloatMisc              0      0.00%     49.04% # attempts to use FU when none available
system.cpu00.iq.fu_full::SimdFloatMult              0      0.00%     49.04% # attempts to use FU when none available
system.cpu00.iq.fu_full::SimdFloatMultAcc            0      0.00%     49.04% # attempts to use FU when none available
system.cpu00.iq.fu_full::SimdFloatSqrt              0      0.00%     49.04% # attempts to use FU when none available
system.cpu00.iq.fu_full::MemRead                 9556     30.89%     79.93% # attempts to use FU when none available
system.cpu00.iq.fu_full::MemWrite                6208     20.07%    100.00% # attempts to use FU when none available
system.cpu00.iq.fu_full::IprAccess                  0      0.00%    100.00% # attempts to use FU when none available
system.cpu00.iq.fu_full::InstPrefetch               0      0.00%    100.00% # attempts to use FU when none available
system.cpu00.iq.FU_type_0::No_OpClass               0      0.00%      0.00% # Type of FU issued
system.cpu00.iq.FU_type_0::IntAlu              550801     57.92%     57.92% # Type of FU issued
system.cpu00.iq.FU_type_0::IntMult              12786      1.34%     59.26% # Type of FU issued
system.cpu00.iq.FU_type_0::IntDiv                   0      0.00%     59.26% # Type of FU issued
system.cpu00.iq.FU_type_0::FloatAdd             35726      3.76%     63.02% # Type of FU issued
system.cpu00.iq.FU_type_0::FloatCmp                 8      0.00%     63.02% # Type of FU issued
system.cpu00.iq.FU_type_0::FloatCvt                 0      0.00%     63.02% # Type of FU issued
system.cpu00.iq.FU_type_0::FloatMult            37108      3.90%     66.92% # Type of FU issued
system.cpu00.iq.FU_type_0::FloatDiv                16      0.00%     66.92% # Type of FU issued
system.cpu00.iq.FU_type_0::FloatSqrt                0      0.00%     66.92% # Type of FU issued
system.cpu00.iq.FU_type_0::SimdAdd                  0      0.00%     66.92% # Type of FU issued
system.cpu00.iq.FU_type_0::SimdAddAcc               0      0.00%     66.92% # Type of FU issued
system.cpu00.iq.FU_type_0::SimdAlu                  0      0.00%     66.92% # Type of FU issued
system.cpu00.iq.FU_type_0::SimdCmp                  0      0.00%     66.92% # Type of FU issued
system.cpu00.iq.FU_type_0::SimdCvt                  0      0.00%     66.92% # Type of FU issued
system.cpu00.iq.FU_type_0::SimdMisc                 0      0.00%     66.92% # Type of FU issued
system.cpu00.iq.FU_type_0::SimdMult                 0      0.00%     66.92% # Type of FU issued
system.cpu00.iq.FU_type_0::SimdMultAcc              0      0.00%     66.92% # Type of FU issued
system.cpu00.iq.FU_type_0::SimdShift                0      0.00%     66.92% # Type of FU issued
system.cpu00.iq.FU_type_0::SimdShiftAcc             0      0.00%     66.92% # Type of FU issued
system.cpu00.iq.FU_type_0::SimdSqrt                 0      0.00%     66.92% # Type of FU issued
system.cpu00.iq.FU_type_0::SimdFloatAdd             0      0.00%     66.92% # Type of FU issued
system.cpu00.iq.FU_type_0::SimdFloatAlu             0      0.00%     66.92% # Type of FU issued
system.cpu00.iq.FU_type_0::SimdFloatCmp             0      0.00%     66.92% # Type of FU issued
system.cpu00.iq.FU_type_0::SimdFloatCvt             0      0.00%     66.92% # Type of FU issued
system.cpu00.iq.FU_type_0::SimdFloatDiv             0      0.00%     66.92% # Type of FU issued
system.cpu00.iq.FU_type_0::SimdFloatMisc            0      0.00%     66.92% # Type of FU issued
system.cpu00.iq.FU_type_0::SimdFloatMult            0      0.00%     66.92% # Type of FU issued
system.cpu00.iq.FU_type_0::SimdFloatMultAcc            0      0.00%     66.92% # Type of FU issued
system.cpu00.iq.FU_type_0::SimdFloatSqrt            0      0.00%     66.92% # Type of FU issued
system.cpu00.iq.FU_type_0::MemRead             183882     19.34%     86.26% # Type of FU issued
system.cpu00.iq.FU_type_0::MemWrite            130685     13.74%    100.00% # Type of FU issued
system.cpu00.iq.FU_type_0::IprAccess                0      0.00%    100.00% # Type of FU issued
system.cpu00.iq.FU_type_0::InstPrefetch             0      0.00%    100.00% # Type of FU issued
system.cpu00.iq.FU_type_0::total               951012                       # Type of FU issued
system.cpu00.iq.rate                         0.947899                       # Inst issue rate
system.cpu00.iq.fu_busy_cnt                     30936                       # FU busy when requested
system.cpu00.iq.fu_busy_rate                 0.032530                       # FU busy rate (busy events/executed inst)
system.cpu00.iq.int_inst_queue_reads          2492706                       # Number of integer instruction queue reads
system.cpu00.iq.int_inst_queue_writes          947963                       # Number of integer instruction queue writes
system.cpu00.iq.int_inst_queue_wakeup_accesses       813578                       # Number of integer instruction queue wakeup accesses
system.cpu00.iq.fp_inst_queue_reads            243286                       # Number of floating instruction queue reads
system.cpu00.iq.fp_inst_queue_writes           123330                       # Number of floating instruction queue writes
system.cpu00.iq.fp_inst_queue_wakeup_accesses       116957                       # Number of floating instruction queue wakeup accesses
system.cpu00.iq.int_alu_accesses               856964                       # Number of integer alu accesses
system.cpu00.iq.fp_alu_accesses                124984                       # Number of floating point alu accesses
system.cpu00.iew.lsq.thread0.forwLoads          21199                       # Number of loads that had data forwarded from stores
system.cpu00.iew.lsq.thread0.invAddrLoads            0                       # Number of loads ignored due to an invalid address
system.cpu00.iew.lsq.thread0.squashedLoads        18278                       # Number of loads squashed
system.cpu00.iew.lsq.thread0.ignoredResponses          120                       # Number of memory responses ignored because the instruction is squashed
system.cpu00.iew.lsq.thread0.memOrderViolation          423                       # Number of memory ordering violations
system.cpu00.iew.lsq.thread0.squashedStores        15898                       # Number of stores squashed
system.cpu00.iew.lsq.thread0.invAddrSwpfs            0                       # Number of software prefetches ignored due to an invalid address
system.cpu00.iew.lsq.thread0.blockedLoads            0                       # Number of blocked loads due to partial load-store forwarding
system.cpu00.iew.lsq.thread0.rescheduledLoads          213                       # Number of loads that were rescheduled
system.cpu00.iew.lsq.thread0.cacheBlocked         8972                       # Number of times an access to memory failed due to the cache being blocked
system.cpu00.iew.iewIdleCycles                      0                       # Number of cycles IEW is idle
system.cpu00.iew.iewSquashCycles                 4594                       # Number of cycles IEW is squashing
system.cpu00.iew.iewBlockCycles                 21570                       # Number of cycles IEW is blocking
system.cpu00.iew.iewUnblockCycles               55749                       # Number of cycles IEW is unblocking
system.cpu00.iew.iewDispatchedInsts           1077714                       # Number of instructions dispatched to IQ
system.cpu00.iew.iewDispSquashedInsts            1429                       # Number of squashed instructions skipped by dispatch
system.cpu00.iew.iewDispLoadInsts              179225                       # Number of dispatched load instructions
system.cpu00.iew.iewDispStoreInsts             135414                       # Number of dispatched store instructions
system.cpu00.iew.iewDispNonSpecInsts             1580                       # Number of dispatched non-speculative instructions
system.cpu00.iew.iewIQFullEvents                   95                       # Number of times the IQ has become full, causing a stall
system.cpu00.iew.iewLSQFullEvents               55564                       # Number of times the LSQ has become full, causing a stall
system.cpu00.iew.memOrderViolationEvents          423                       # Number of memory order violations
system.cpu00.iew.predictedTakenIncorrect         1581                       # Number of branches that were predicted taken incorrectly
system.cpu00.iew.predictedNotTakenIncorrect         3113                       # Number of branches that were predicted not taken incorrectly
system.cpu00.iew.branchMispredicts               4694                       # Number of branch mispredicts detected at execute
system.cpu00.iew.iewExecutedInsts              943427                       # Number of executed instructions
system.cpu00.iew.iewExecLoadInsts              180652                       # Number of load instructions executed
system.cpu00.iew.iewExecSquashedInsts            7585                       # Number of squashed instructions skipped in execute
system.cpu00.iew.exec_swp                           0                       # number of swp insts executed
system.cpu00.iew.exec_nop                      107378                       # number of nop insts executed
system.cpu00.iew.exec_refs                     309796                       # number of memory reference insts executed
system.cpu00.iew.exec_branches                 110268                       # Number of branches executed
system.cpu00.iew.exec_stores                   129144                       # Number of stores executed
system.cpu00.iew.exec_rate                   0.940339                       # Inst execution rate
system.cpu00.iew.wb_sent                       934075                       # cumulative count of insts sent to commit
system.cpu00.iew.wb_count                      930535                       # cumulative count of insts written-back
system.cpu00.iew.wb_producers                  545810                       # num instructions producing a value
system.cpu00.iew.wb_consumers                  777900                       # num instructions consuming a value
system.cpu00.iew.wb_rate                     0.927489                       # insts written-back per cycle
system.cpu00.iew.wb_fanout                   0.701645                       # average fanout of values written-back
system.cpu00.commit.commitSquashedInsts        104334                       # The number of squashed insts skipped by commit
system.cpu00.commit.commitNonSpecStalls          2369                       # The number of times commit has been forced to stall to communicate backwards
system.cpu00.commit.branchMispredicts            3909                       # The number of times a branch was mispredicted
system.cpu00.commit.committed_per_cycle::samples       785119                       # Number of insts commited each cycle
system.cpu00.commit.committed_per_cycle::mean     1.233436                       # Number of insts commited each cycle
system.cpu00.commit.committed_per_cycle::stdev     2.323091                       # Number of insts commited each cycle
system.cpu00.commit.committed_per_cycle::underflows            0      0.00%      0.00% # Number of insts commited each cycle
system.cpu00.commit.committed_per_cycle::0       537080     68.41%     68.41% # Number of insts commited each cycle
system.cpu00.commit.committed_per_cycle::1        51325      6.54%     74.94% # Number of insts commited each cycle
system.cpu00.commit.committed_per_cycle::2        51111      6.51%     81.45% # Number of insts commited each cycle
system.cpu00.commit.committed_per_cycle::3        30137      3.84%     85.29% # Number of insts commited each cycle
system.cpu00.commit.committed_per_cycle::4        35417      4.51%     89.80% # Number of insts commited each cycle
system.cpu00.commit.committed_per_cycle::5         8864      1.13%     90.93% # Number of insts commited each cycle
system.cpu00.commit.committed_per_cycle::6        12953      1.65%     92.58% # Number of insts commited each cycle
system.cpu00.commit.committed_per_cycle::7         5126      0.65%     93.24% # Number of insts commited each cycle
system.cpu00.commit.committed_per_cycle::8        53106      6.76%    100.00% # Number of insts commited each cycle
system.cpu00.commit.committed_per_cycle::overflows            0      0.00%    100.00% # Number of insts commited each cycle
system.cpu00.commit.committed_per_cycle::min_value            0                       # Number of insts commited each cycle
system.cpu00.commit.committed_per_cycle::max_value            8                       # Number of insts commited each cycle
system.cpu00.commit.committed_per_cycle::total       785119                       # Number of insts commited each cycle
system.cpu00.commit.committedInsts             968394                       # Number of instructions committed
system.cpu00.commit.committedOps               968394                       # Number of ops (including micro ops) committed
system.cpu00.commit.swp_count                       0                       # Number of s/w prefetches committed
system.cpu00.commit.refs                       280463                       # Number of memory references committed
system.cpu00.commit.loads                      160947                       # Number of loads committed
system.cpu00.commit.membars                      1032                       # Number of memory barriers committed
system.cpu00.commit.branches                   100088                       # Number of branches committed
system.cpu00.commit.fp_insts                   116058                       # Number of committed floating point instructions.
system.cpu00.commit.int_insts                  791925                       # Number of committed integer instructions.
system.cpu00.commit.function_calls              22216                       # Number of function calls committed.
system.cpu00.commit.op_class_0::No_OpClass        98601     10.18%     10.18% # Class of committed instruction
system.cpu00.commit.op_class_0::IntAlu         503171     51.96%     62.14% # Class of committed instruction
system.cpu00.commit.op_class_0::IntMult         12689      1.31%     63.45% # Class of committed instruction
system.cpu00.commit.op_class_0::IntDiv              0      0.00%     63.45% # Class of committed instruction
system.cpu00.commit.op_class_0::FloatAdd        35480      3.66%     67.12% # Class of committed instruction
system.cpu00.commit.op_class_0::FloatCmp            8      0.00%     67.12% # Class of committed instruction
system.cpu00.commit.op_class_0::FloatCvt            0      0.00%     67.12% # Class of committed instruction
system.cpu00.commit.op_class_0::FloatMult        36935      3.81%     70.93% # Class of committed instruction
system.cpu00.commit.op_class_0::FloatDiv           14      0.00%     70.93% # Class of committed instruction
system.cpu00.commit.op_class_0::FloatSqrt            0      0.00%     70.93% # Class of committed instruction
system.cpu00.commit.op_class_0::SimdAdd             0      0.00%     70.93% # Class of committed instruction
system.cpu00.commit.op_class_0::SimdAddAcc            0      0.00%     70.93% # Class of committed instruction
system.cpu00.commit.op_class_0::SimdAlu             0      0.00%     70.93% # Class of committed instruction
system.cpu00.commit.op_class_0::SimdCmp             0      0.00%     70.93% # Class of committed instruction
system.cpu00.commit.op_class_0::SimdCvt             0      0.00%     70.93% # Class of committed instruction
system.cpu00.commit.op_class_0::SimdMisc            0      0.00%     70.93% # Class of committed instruction
system.cpu00.commit.op_class_0::SimdMult            0      0.00%     70.93% # Class of committed instruction
system.cpu00.commit.op_class_0::SimdMultAcc            0      0.00%     70.93% # Class of committed instruction
system.cpu00.commit.op_class_0::SimdShift            0      0.00%     70.93% # Class of committed instruction
system.cpu00.commit.op_class_0::SimdShiftAcc            0      0.00%     70.93% # Class of committed instruction
system.cpu00.commit.op_class_0::SimdSqrt            0      0.00%     70.93% # Class of committed instruction
system.cpu00.commit.op_class_0::SimdFloatAdd            0      0.00%     70.93% # Class of committed instruction
system.cpu00.commit.op_class_0::SimdFloatAlu            0      0.00%     70.93% # Class of committed instruction
system.cpu00.commit.op_class_0::SimdFloatCmp            0      0.00%     70.93% # Class of committed instruction
system.cpu00.commit.op_class_0::SimdFloatCvt            0      0.00%     70.93% # Class of committed instruction
system.cpu00.commit.op_class_0::SimdFloatDiv            0      0.00%     70.93% # Class of committed instruction
system.cpu00.commit.op_class_0::SimdFloatMisc            0      0.00%     70.93% # Class of committed instruction
system.cpu00.commit.op_class_0::SimdFloatMult            0      0.00%     70.93% # Class of committed instruction
system.cpu00.commit.op_class_0::SimdFloatMultAcc            0      0.00%     70.93% # Class of committed instruction
system.cpu00.commit.op_class_0::SimdFloatSqrt            0      0.00%     70.93% # Class of committed instruction
system.cpu00.commit.op_class_0::MemRead        161979     16.73%     87.66% # Class of committed instruction
system.cpu00.commit.op_class_0::MemWrite       119517     12.34%    100.00% # Class of committed instruction
system.cpu00.commit.op_class_0::IprAccess            0      0.00%    100.00% # Class of committed instruction
system.cpu00.commit.op_class_0::InstPrefetch            0      0.00%    100.00% # Class of committed instruction
system.cpu00.commit.op_class_0::total          968394                       # Class of committed instruction
system.cpu00.commit.bw_lim_events               53106                       # number cycles where commit BW limit reached
system.cpu00.rob.rob_reads                    1800750                       # The number of ROB reads
system.cpu00.rob.rob_writes                   2161936                       # The number of ROB writes
system.cpu00.timesIdled                          1447                       # Number of times that the entire CPU went into an idle state and unscheduled itself
system.cpu00.idleCycles                        201818                       # Total number of cycles that the CPU has spent unscheduled due to idling
system.cpu00.quiesceCycles                      73496                       # Total number of cycles that CPU has spent quiesced or waiting for an interrupt
system.cpu00.committedInsts                    869793                       # Number of Instructions Simulated
system.cpu00.committedOps                      869793                       # Number of Ops (including micro ops) Simulated
system.cpu00.cpi                             1.153474                       # CPI: Cycles Per Instruction
system.cpu00.cpi_total                       1.153474                       # CPI: Total CPI of All Threads
system.cpu00.ipc                             0.866946                       # IPC: Instructions Per Cycle
system.cpu00.ipc_total                       0.866946                       # IPC: Total IPC of All Threads
system.cpu00.int_regfile_reads                1139962                       # number of integer regfile reads
system.cpu00.int_regfile_writes                612378                       # number of integer regfile writes
system.cpu00.fp_regfile_reads                  151800                       # number of floating regfile reads
system.cpu00.fp_regfile_writes                 102900                       # number of floating regfile writes
system.cpu00.misc_regfile_reads                  4963                       # number of misc regfile reads
system.cpu00.misc_regfile_writes                 2247                       # number of misc regfile writes
system.cpu00.dcache.tags.replacements           12000                       # number of replacements
system.cpu00.dcache.tags.tagsinuse         123.899872                       # Cycle average of tags in use
system.cpu00.dcache.tags.total_refs            228320                       # Total number of references to valid blocks.
system.cpu00.dcache.tags.sampled_refs           12127                       # Sample count of references to valid blocks.
system.cpu00.dcache.tags.avg_refs           18.827410                       # Average number of references to valid blocks.
system.cpu00.dcache.tags.warmup_cycle        89150180                       # Cycle when the warmup percentage was hit.
system.cpu00.dcache.tags.occ_blocks::cpu00.data   123.899872                       # Average occupied blocks per requestor
system.cpu00.dcache.tags.occ_percent::cpu00.data     0.967968                       # Average percentage of cache occupancy
system.cpu00.dcache.tags.occ_percent::total     0.967968                       # Average percentage of cache occupancy
system.cpu00.dcache.tags.occ_task_id_blocks::1024          127                       # Occupied blocks per task id
system.cpu00.dcache.tags.age_task_id_blocks_1024::0           70                       # Occupied blocks per task id
system.cpu00.dcache.tags.age_task_id_blocks_1024::1           50                       # Occupied blocks per task id
system.cpu00.dcache.tags.age_task_id_blocks_1024::2            7                       # Occupied blocks per task id
system.cpu00.dcache.tags.occ_task_id_percent::1024     0.992188                       # Percentage of cache occupancy per task id
system.cpu00.dcache.tags.tag_accesses          554463                       # Number of tag accesses
system.cpu00.dcache.tags.data_accesses         554463                       # Number of data accesses
system.cpu00.dcache.ReadReq_hits::cpu00.data       141500                       # number of ReadReq hits
system.cpu00.dcache.ReadReq_hits::total        141500                       # number of ReadReq hits
system.cpu00.dcache.WriteReq_hits::cpu00.data        84651                       # number of WriteReq hits
system.cpu00.dcache.WriteReq_hits::total        84651                       # number of WriteReq hits
system.cpu00.dcache.LoadLockedReq_hits::cpu00.data          927                       # number of LoadLockedReq hits
system.cpu00.dcache.LoadLockedReq_hits::total          927                       # number of LoadLockedReq hits
system.cpu00.dcache.StoreCondReq_hits::cpu00.data         1098                       # number of StoreCondReq hits
system.cpu00.dcache.StoreCondReq_hits::total         1098                       # number of StoreCondReq hits
system.cpu00.dcache.demand_hits::cpu00.data       226151                       # number of demand (read+write) hits
system.cpu00.dcache.demand_hits::total         226151                       # number of demand (read+write) hits
system.cpu00.dcache.overall_hits::cpu00.data       226151                       # number of overall hits
system.cpu00.dcache.overall_hits::total        226151                       # number of overall hits
system.cpu00.dcache.ReadReq_misses::cpu00.data         8835                       # number of ReadReq misses
system.cpu00.dcache.ReadReq_misses::total         8835                       # number of ReadReq misses
system.cpu00.dcache.WriteReq_misses::cpu00.data        33744                       # number of WriteReq misses
system.cpu00.dcache.WriteReq_misses::total        33744                       # number of WriteReq misses
system.cpu00.dcache.LoadLockedReq_misses::cpu00.data          275                       # number of LoadLockedReq misses
system.cpu00.dcache.LoadLockedReq_misses::total          275                       # number of LoadLockedReq misses
system.cpu00.dcache.StoreCondReq_misses::cpu00.data           23                       # number of StoreCondReq misses
system.cpu00.dcache.StoreCondReq_misses::total           23                       # number of StoreCondReq misses
system.cpu00.dcache.demand_misses::cpu00.data        42579                       # number of demand (read+write) misses
system.cpu00.dcache.demand_misses::total        42579                       # number of demand (read+write) misses
system.cpu00.dcache.overall_misses::cpu00.data        42579                       # number of overall misses
system.cpu00.dcache.overall_misses::total        42579                       # number of overall misses
system.cpu00.dcache.ReadReq_miss_latency::cpu00.data    396485900                       # number of ReadReq miss cycles
system.cpu00.dcache.ReadReq_miss_latency::total    396485900                       # number of ReadReq miss cycles
system.cpu00.dcache.WriteReq_miss_latency::cpu00.data   5353765779                       # number of WriteReq miss cycles
system.cpu00.dcache.WriteReq_miss_latency::total   5353765779                       # number of WriteReq miss cycles
system.cpu00.dcache.LoadLockedReq_miss_latency::cpu00.data      2557060                       # number of LoadLockedReq miss cycles
system.cpu00.dcache.LoadLockedReq_miss_latency::total      2557060                       # number of LoadLockedReq miss cycles
system.cpu00.dcache.StoreCondReq_miss_latency::cpu00.data       332760                       # number of StoreCondReq miss cycles
system.cpu00.dcache.StoreCondReq_miss_latency::total       332760                       # number of StoreCondReq miss cycles
system.cpu00.dcache.demand_miss_latency::cpu00.data   5750251679                       # number of demand (read+write) miss cycles
system.cpu00.dcache.demand_miss_latency::total   5750251679                       # number of demand (read+write) miss cycles
system.cpu00.dcache.overall_miss_latency::cpu00.data   5750251679                       # number of overall miss cycles
system.cpu00.dcache.overall_miss_latency::total   5750251679                       # number of overall miss cycles
system.cpu00.dcache.ReadReq_accesses::cpu00.data       150335                       # number of ReadReq accesses(hits+misses)
system.cpu00.dcache.ReadReq_accesses::total       150335                       # number of ReadReq accesses(hits+misses)
system.cpu00.dcache.WriteReq_accesses::cpu00.data       118395                       # number of WriteReq accesses(hits+misses)
system.cpu00.dcache.WriteReq_accesses::total       118395                       # number of WriteReq accesses(hits+misses)
system.cpu00.dcache.LoadLockedReq_accesses::cpu00.data         1202                       # number of LoadLockedReq accesses(hits+misses)
system.cpu00.dcache.LoadLockedReq_accesses::total         1202                       # number of LoadLockedReq accesses(hits+misses)
system.cpu00.dcache.StoreCondReq_accesses::cpu00.data         1121                       # number of StoreCondReq accesses(hits+misses)
system.cpu00.dcache.StoreCondReq_accesses::total         1121                       # number of StoreCondReq accesses(hits+misses)
system.cpu00.dcache.demand_accesses::cpu00.data       268730                       # number of demand (read+write) accesses
system.cpu00.dcache.demand_accesses::total       268730                       # number of demand (read+write) accesses
system.cpu00.dcache.overall_accesses::cpu00.data       268730                       # number of overall (read+write) accesses
system.cpu00.dcache.overall_accesses::total       268730                       # number of overall (read+write) accesses
system.cpu00.dcache.ReadReq_miss_rate::cpu00.data     0.058769                       # miss rate for ReadReq accesses
system.cpu00.dcache.ReadReq_miss_rate::total     0.058769                       # miss rate for ReadReq accesses
system.cpu00.dcache.WriteReq_miss_rate::cpu00.data     0.285012                       # miss rate for WriteReq accesses
system.cpu00.dcache.WriteReq_miss_rate::total     0.285012                       # miss rate for WriteReq accesses
system.cpu00.dcache.LoadLockedReq_miss_rate::cpu00.data     0.228785                       # miss rate for LoadLockedReq accesses
system.cpu00.dcache.LoadLockedReq_miss_rate::total     0.228785                       # miss rate for LoadLockedReq accesses
system.cpu00.dcache.StoreCondReq_miss_rate::cpu00.data     0.020517                       # miss rate for StoreCondReq accesses
system.cpu00.dcache.StoreCondReq_miss_rate::total     0.020517                       # miss rate for StoreCondReq accesses
system.cpu00.dcache.demand_miss_rate::cpu00.data     0.158445                       # miss rate for demand accesses
system.cpu00.dcache.demand_miss_rate::total     0.158445                       # miss rate for demand accesses
system.cpu00.dcache.overall_miss_rate::cpu00.data     0.158445                       # miss rate for overall accesses
system.cpu00.dcache.overall_miss_rate::total     0.158445                       # miss rate for overall accesses
system.cpu00.dcache.ReadReq_avg_miss_latency::cpu00.data 44876.728919                       # average ReadReq miss latency
system.cpu00.dcache.ReadReq_avg_miss_latency::total 44876.728919                       # average ReadReq miss latency
system.cpu00.dcache.WriteReq_avg_miss_latency::cpu00.data 158658.303076                       # average WriteReq miss latency
system.cpu00.dcache.WriteReq_avg_miss_latency::total 158658.303076                       # average WriteReq miss latency
system.cpu00.dcache.LoadLockedReq_avg_miss_latency::cpu00.data  9298.400000                       # average LoadLockedReq miss latency
system.cpu00.dcache.LoadLockedReq_avg_miss_latency::total  9298.400000                       # average LoadLockedReq miss latency
system.cpu00.dcache.StoreCondReq_avg_miss_latency::cpu00.data 14467.826087                       # average StoreCondReq miss latency
system.cpu00.dcache.StoreCondReq_avg_miss_latency::total 14467.826087                       # average StoreCondReq miss latency
system.cpu00.dcache.demand_avg_miss_latency::cpu00.data 135049.007234                       # average overall miss latency
system.cpu00.dcache.demand_avg_miss_latency::total 135049.007234                       # average overall miss latency
system.cpu00.dcache.overall_avg_miss_latency::cpu00.data 135049.007234                       # average overall miss latency
system.cpu00.dcache.overall_avg_miss_latency::total 135049.007234                       # average overall miss latency
system.cpu00.dcache.blocked_cycles::no_mshrs       153925                       # number of cycles access was blocked
system.cpu00.dcache.blocked_cycles::no_targets            0                       # number of cycles access was blocked
system.cpu00.dcache.blocked::no_mshrs            2684                       # number of cycles access was blocked
system.cpu00.dcache.blocked::no_targets             0                       # number of cycles access was blocked
system.cpu00.dcache.avg_blocked_cycles::no_mshrs    57.349106                       # average number of cycles each access was blocked
system.cpu00.dcache.avg_blocked_cycles::no_targets          nan                       # average number of cycles each access was blocked
system.cpu00.dcache.fast_writes                     0                       # number of fast writes performed
system.cpu00.dcache.cache_copies                    0                       # number of cache copies performed
system.cpu00.dcache.writebacks::writebacks         8965                       # number of writebacks
system.cpu00.dcache.writebacks::total            8965                       # number of writebacks
system.cpu00.dcache.ReadReq_mshr_hits::cpu00.data         3011                       # number of ReadReq MSHR hits
system.cpu00.dcache.ReadReq_mshr_hits::total         3011                       # number of ReadReq MSHR hits
system.cpu00.dcache.WriteReq_mshr_hits::cpu00.data        27249                       # number of WriteReq MSHR hits
system.cpu00.dcache.WriteReq_mshr_hits::total        27249                       # number of WriteReq MSHR hits
system.cpu00.dcache.LoadLockedReq_mshr_hits::cpu00.data          160                       # number of LoadLockedReq MSHR hits
system.cpu00.dcache.LoadLockedReq_mshr_hits::total          160                       # number of LoadLockedReq MSHR hits
system.cpu00.dcache.demand_mshr_hits::cpu00.data        30260                       # number of demand (read+write) MSHR hits
system.cpu00.dcache.demand_mshr_hits::total        30260                       # number of demand (read+write) MSHR hits
system.cpu00.dcache.overall_mshr_hits::cpu00.data        30260                       # number of overall MSHR hits
system.cpu00.dcache.overall_mshr_hits::total        30260                       # number of overall MSHR hits
system.cpu00.dcache.ReadReq_mshr_misses::cpu00.data         5824                       # number of ReadReq MSHR misses
system.cpu00.dcache.ReadReq_mshr_misses::total         5824                       # number of ReadReq MSHR misses
system.cpu00.dcache.WriteReq_mshr_misses::cpu00.data         6495                       # number of WriteReq MSHR misses
system.cpu00.dcache.WriteReq_mshr_misses::total         6495                       # number of WriteReq MSHR misses
system.cpu00.dcache.LoadLockedReq_mshr_misses::cpu00.data          115                       # number of LoadLockedReq MSHR misses
system.cpu00.dcache.LoadLockedReq_mshr_misses::total          115                       # number of LoadLockedReq MSHR misses
system.cpu00.dcache.StoreCondReq_mshr_misses::cpu00.data           23                       # number of StoreCondReq MSHR misses
system.cpu00.dcache.StoreCondReq_mshr_misses::total           23                       # number of StoreCondReq MSHR misses
system.cpu00.dcache.demand_mshr_misses::cpu00.data        12319                       # number of demand (read+write) MSHR misses
system.cpu00.dcache.demand_mshr_misses::total        12319                       # number of demand (read+write) MSHR misses
system.cpu00.dcache.overall_mshr_misses::cpu00.data        12319                       # number of overall MSHR misses
system.cpu00.dcache.overall_mshr_misses::total        12319                       # number of overall MSHR misses
system.cpu00.dcache.ReadReq_mshr_miss_latency::cpu00.data    229658680                       # number of ReadReq MSHR miss cycles
system.cpu00.dcache.ReadReq_mshr_miss_latency::total    229658680                       # number of ReadReq MSHR miss cycles
system.cpu00.dcache.WriteReq_mshr_miss_latency::cpu00.data   1131560904                       # number of WriteReq MSHR miss cycles
system.cpu00.dcache.WriteReq_mshr_miss_latency::total   1131560904                       # number of WriteReq MSHR miss cycles
system.cpu00.dcache.LoadLockedReq_mshr_miss_latency::cpu00.data       939280                       # number of LoadLockedReq MSHR miss cycles
system.cpu00.dcache.LoadLockedReq_mshr_miss_latency::total       939280                       # number of LoadLockedReq MSHR miss cycles
system.cpu00.dcache.StoreCondReq_mshr_miss_latency::cpu00.data       305620                       # number of StoreCondReq MSHR miss cycles
system.cpu00.dcache.StoreCondReq_mshr_miss_latency::total       305620                       # number of StoreCondReq MSHR miss cycles
system.cpu00.dcache.demand_mshr_miss_latency::cpu00.data   1361219584                       # number of demand (read+write) MSHR miss cycles
system.cpu00.dcache.demand_mshr_miss_latency::total   1361219584                       # number of demand (read+write) MSHR miss cycles
system.cpu00.dcache.overall_mshr_miss_latency::cpu00.data   1361219584                       # number of overall MSHR miss cycles
system.cpu00.dcache.overall_mshr_miss_latency::total   1361219584                       # number of overall MSHR miss cycles
system.cpu00.dcache.ReadReq_mshr_miss_rate::cpu00.data     0.038740                       # mshr miss rate for ReadReq accesses
system.cpu00.dcache.ReadReq_mshr_miss_rate::total     0.038740                       # mshr miss rate for ReadReq accesses
system.cpu00.dcache.WriteReq_mshr_miss_rate::cpu00.data     0.054859                       # mshr miss rate for WriteReq accesses
system.cpu00.dcache.WriteReq_mshr_miss_rate::total     0.054859                       # mshr miss rate for WriteReq accesses
system.cpu00.dcache.LoadLockedReq_mshr_miss_rate::cpu00.data     0.095674                       # mshr miss rate for LoadLockedReq accesses
system.cpu00.dcache.LoadLockedReq_mshr_miss_rate::total     0.095674                       # mshr miss rate for LoadLockedReq accesses
system.cpu00.dcache.StoreCondReq_mshr_miss_rate::cpu00.data     0.020517                       # mshr miss rate for StoreCondReq accesses
system.cpu00.dcache.StoreCondReq_mshr_miss_rate::total     0.020517                       # mshr miss rate for StoreCondReq accesses
system.cpu00.dcache.demand_mshr_miss_rate::cpu00.data     0.045842                       # mshr miss rate for demand accesses
system.cpu00.dcache.demand_mshr_miss_rate::total     0.045842                       # mshr miss rate for demand accesses
system.cpu00.dcache.overall_mshr_miss_rate::cpu00.data     0.045842                       # mshr miss rate for overall accesses
system.cpu00.dcache.overall_mshr_miss_rate::total     0.045842                       # mshr miss rate for overall accesses
system.cpu00.dcache.ReadReq_avg_mshr_miss_latency::cpu00.data 39433.152473                       # average ReadReq mshr miss latency
system.cpu00.dcache.ReadReq_avg_mshr_miss_latency::total 39433.152473                       # average ReadReq mshr miss latency
system.cpu00.dcache.WriteReq_avg_mshr_miss_latency::cpu00.data 174220.308545                       # average WriteReq mshr miss latency
system.cpu00.dcache.WriteReq_avg_mshr_miss_latency::total 174220.308545                       # average WriteReq mshr miss latency
[...]
system.tol2bus.pkt_count_system.cpu06.dcache.mem_side::system.l2.cpu_side         2918                       # Packet count per connected master and slave (bytes)
system.tol2bus.pkt_count_system.cpu07.icache.mem_side::system.l2.cpu_side         3200                       # Packet count per connected master and slave (bytes)
system.tol2bus.pkt_count_system.cpu07.dcache.mem_side::system.l2.cpu_side         3416                       # Packet count per connected master and slave (bytes)
system.tol2bus.pkt_count_system.cpu08.icache.mem_side::system.l2.cpu_side         2410                       # Packet count per connected master and slave (bytes)
system.tol2bus.pkt_count_system.cpu08.dcache.mem_side::system.l2.cpu_side         3125                       # Packet count per connected master and slave (bytes)
system.tol2bus.pkt_count_system.cpu09.icache.mem_side::system.l2.cpu_side         1488                       # Packet count per connected master and slave (bytes)
system.tol2bus.pkt_count_system.cpu09.dcache.mem_side::system.l2.cpu_side         1393                       # Packet count per connected master and slave (bytes)
system.tol2bus.pkt_count_system.cpu10.icache.mem_side::system.l2.cpu_side         1236                       # Packet count per connected master and slave (bytes)
system.tol2bus.pkt_count_system.cpu10.dcache.mem_side::system.l2.cpu_side         1198                       # Packet count per connected master and slave (bytes)
system.tol2bus.pkt_count_system.cpu11.icache.mem_side::system.l2.cpu_side         2257                       # Packet count per connected master and slave (bytes)
system.tol2bus.pkt_count_system.cpu11.dcache.mem_side::system.l2.cpu_side         3098                       # Packet count per connected master and slave (bytes)
system.tol2bus.pkt_count_system.cpu12.icache.mem_side::system.l2.cpu_side         3189                       # Packet count per connected master and slave (bytes)
system.tol2bus.pkt_count_system.cpu12.dcache.mem_side::system.l2.cpu_side         3117                       # Packet count per connected master and slave (bytes)
system.tol2bus.pkt_count_system.cpu13.icache.mem_side::system.l2.cpu_side         2966                       # Packet count per connected master and slave (bytes)
system.tol2bus.pkt_count_system.cpu13.dcache.mem_side::system.l2.cpu_side         3392                       # Packet count per connected master and slave (bytes)
system.tol2bus.pkt_count_system.cpu14.icache.mem_side::system.l2.cpu_side         2504                       # Packet count per connected master and slave (bytes)
system.tol2bus.pkt_count_system.cpu14.dcache.mem_side::system.l2.cpu_side         2537                       # Packet count per connected master and slave (bytes)
system.tol2bus.pkt_count_system.cpu15.icache.mem_side::system.l2.cpu_side         1441                       # Packet count per connected master and slave (bytes)
system.tol2bus.pkt_count_system.cpu15.dcache.mem_side::system.l2.cpu_side         1673                       # Packet count per connected master and slave (bytes)
system.tol2bus.pkt_count::total                127985                       # Packet count per connected master and slave (bytes)
system.tol2bus.pkt_size_system.cpu00.icache.mem_side::system.l2.cpu_side       980224                       # Cumulative packet size per connected master and slave (bytes)
system.tol2bus.pkt_size_system.cpu00.dcache.mem_side::system.l2.cpu_side      1349568                       # Cumulative packet size per connected master and slave (bytes)
system.tol2bus.pkt_size_system.cpu01.icache.mem_side::system.l2.cpu_side       119680                       # Cumulative packet size per connected master and slave (bytes)
system.tol2bus.pkt_size_system.cpu01.dcache.mem_side::system.l2.cpu_side        68160                       # Cumulative packet size per connected master and slave (bytes)
system.tol2bus.pkt_size_system.cpu02.icache.mem_side::system.l2.cpu_side        35136                       # Cumulative packet size per connected master and slave (bytes)
system.tol2bus.pkt_size_system.cpu02.dcache.mem_side::system.l2.cpu_side        34176                       # Cumulative packet size per connected master and slave (bytes)
system.tol2bus.pkt_size_system.cpu03.icache.mem_side::system.l2.cpu_side        31552                       # Cumulative packet size per connected master and slave (bytes)
system.tol2bus.pkt_size_system.cpu03.dcache.mem_side::system.l2.cpu_side        30272                       # Cumulative packet size per connected master and slave (bytes)
system.tol2bus.pkt_size_system.cpu04.icache.mem_side::system.l2.cpu_side        74880                       # Cumulative packet size per connected master and slave (bytes)
system.tol2bus.pkt_size_system.cpu04.dcache.mem_side::system.l2.cpu_side        47232                       # Cumulative packet size per connected master and slave (bytes)
system.tol2bus.pkt_size_system.cpu05.icache.mem_side::system.l2.cpu_side        58624                       # Cumulative packet size per connected master and slave (bytes)
system.tol2bus.pkt_size_system.cpu05.dcache.mem_side::system.l2.cpu_side        48000                       # Cumulative packet size per connected master and slave (bytes)
system.tol2bus.pkt_size_system.cpu06.icache.mem_side::system.l2.cpu_side       104384                       # Cumulative packet size per connected master and slave (bytes)
system.tol2bus.pkt_size_system.cpu06.dcache.mem_side::system.l2.cpu_side        61504                       # Cumulative packet size per connected master and slave (bytes)
system.tol2bus.pkt_size_system.cpu07.icache.mem_side::system.l2.cpu_side       126080                       # Cumulative packet size per connected master and slave (bytes)
system.tol2bus.pkt_size_system.cpu07.dcache.mem_side::system.l2.cpu_side        61824                       # Cumulative packet size per connected master and slave (bytes)
system.tol2bus.pkt_size_system.cpu08.icache.mem_side::system.l2.cpu_side        92608                       # Cumulative packet size per connected master and slave (bytes)
system.tol2bus.pkt_size_system.cpu08.dcache.mem_side::system.l2.cpu_side        65472                       # Cumulative packet size per connected master and slave (bytes)
system.tol2bus.pkt_size_system.cpu09.icache.mem_side::system.l2.cpu_side        53952                       # Cumulative packet size per connected master and slave (bytes)
system.tol2bus.pkt_size_system.cpu09.dcache.mem_side::system.l2.cpu_side        38400                       # Cumulative packet size per connected master and slave (bytes)
system.tol2bus.pkt_size_system.cpu10.icache.mem_side::system.l2.cpu_side        43520                       # Cumulative packet size per connected master and slave (bytes)
system.tol2bus.pkt_size_system.cpu10.dcache.mem_side::system.l2.cpu_side        34880                       # Cumulative packet size per connected master and slave (bytes)
system.tol2bus.pkt_size_system.cpu11.icache.mem_side::system.l2.cpu_side        86208                       # Cumulative packet size per connected master and slave (bytes)
system.tol2bus.pkt_size_system.cpu11.dcache.mem_side::system.l2.cpu_side        67392                       # Cumulative packet size per connected master and slave (bytes)
system.tol2bus.pkt_size_system.cpu12.icache.mem_side::system.l2.cpu_side       125504                       # Cumulative packet size per connected master and slave (bytes)
system.tol2bus.pkt_size_system.cpu12.dcache.mem_side::system.l2.cpu_side        59072                       # Cumulative packet size per connected master and slave (bytes)
system.tol2bus.pkt_size_system.cpu13.icache.mem_side::system.l2.cpu_side       116672                       # Cumulative packet size per connected master and slave (bytes)
system.tol2bus.pkt_size_system.cpu13.dcache.mem_side::system.l2.cpu_side        52544                       # Cumulative packet size per connected master and slave (bytes)
system.tol2bus.pkt_size_system.cpu14.icache.mem_side::system.l2.cpu_side        96640                       # Cumulative packet size per connected master and slave (bytes)
system.tol2bus.pkt_size_system.cpu14.dcache.mem_side::system.l2.cpu_side        61760                       # Cumulative packet size per connected master and slave (bytes)
system.tol2bus.pkt_size_system.cpu15.icache.mem_side::system.l2.cpu_side        52224                       # Cumulative packet size per connected master and slave (bytes)
system.tol2bus.pkt_size_system.cpu15.dcache.mem_side::system.l2.cpu_side        30912                       # Cumulative packet size per connected master and slave (bytes)
system.tol2bus.pkt_size::total                4309056                       # Cumulative packet size per connected master and slave (bytes)
system.tol2bus.snoops                           10095                       # Total snoops (count)
system.tol2bus.snoop_fanout::samples            52302                       # Request fanout histogram
system.tol2bus.snoop_fanout::mean            2.378609                       # Request fanout histogram
system.tol2bus.snoop_fanout::stdev           3.868690                       # Request fanout histogram
system.tol2bus.snoop_fanout::underflows             0      0.00%      0.00% # Request fanout histogram
system.tol2bus.snoop_fanout::0                  26712     51.07%     51.07% # Request fanout histogram
system.tol2bus.snoop_fanout::1                   9350     17.88%     68.95% # Request fanout histogram
system.tol2bus.snoop_fanout::2                   2676      5.12%     74.07% # Request fanout histogram
system.tol2bus.snoop_fanout::3                   1424      2.72%     76.79% # Request fanout histogram
system.tol2bus.snoop_fanout::4                   1319      2.52%     79.31% # Request fanout histogram
system.tol2bus.snoop_fanout::5                   1268      2.42%     81.73% # Request fanout histogram
system.tol2bus.snoop_fanout::6                   1273      2.43%     84.17% # Request fanout histogram
system.tol2bus.snoop_fanout::7                   1217      2.33%     86.50% # Request fanout histogram
system.tol2bus.snoop_fanout::8                   1120      2.14%     88.64% # Request fanout histogram
system.tol2bus.snoop_fanout::9                   1070      2.05%     90.68% # Request fanout histogram
system.tol2bus.snoop_fanout::10                  1080      2.06%     92.75% # Request fanout histogram
system.tol2bus.snoop_fanout::11                   912      1.74%     94.49% # Request fanout histogram
system.tol2bus.snoop_fanout::12                   914      1.75%     96.24% # Request fanout histogram
system.tol2bus.snoop_fanout::13                   751      1.44%     97.68% # Request fanout histogram
system.tol2bus.snoop_fanout::14                   736      1.41%     99.08% # Request fanout histogram
system.tol2bus.snoop_fanout::15                   478      0.91%    100.00% # Request fanout histogram
system.tol2bus.snoop_fanout::16                     2      0.00%    100.00% # Request fanout histogram
system.tol2bus.snoop_fanout::17                     0      0.00%    100.00% # Request fanout histogram
system.tol2bus.snoop_fanout::18                     0      0.00%    100.00% # Request fanout histogram
system.tol2bus.snoop_fanout::19                     0      0.00%    100.00% # Request fanout histogram
system.tol2bus.snoop_fanout::20                     0      0.00%    100.00% # Request fanout histogram
system.tol2bus.snoop_fanout::21                     0      0.00%    100.00% # Request fanout histogram
system.tol2bus.snoop_fanout::22                     0      0.00%    100.00% # Request fanout histogram
system.tol2bus.snoop_fanout::23                     0      0.00%    100.00% # Request fanout histogram
system.tol2bus.snoop_fanout::24                     0      0.00%    100.00% # Request fanout histogram
system.tol2bus.snoop_fanout::25                     0      0.00%    100.00% # Request fanout histogram
system.tol2bus.snoop_fanout::26                     0      0.00%    100.00% # Request fanout histogram
system.tol2bus.snoop_fanout::27                     0      0.00%    100.00% # Request fanout histogram
system.tol2bus.snoop_fanout::28                     0      0.00%    100.00% # Request fanout histogram
system.tol2bus.snoop_fanout::29                     0      0.00%    100.00% # Request fanout histogram
system.tol2bus.snoop_fanout::30                     0      0.00%    100.00% # Request fanout histogram
system.tol2bus.snoop_fanout::31                     0      0.00%    100.00% # Request fanout histogram
system.tol2bus.snoop_fanout::32                     0      0.00%    100.00% # Request fanout histogram
system.tol2bus.snoop_fanout::overflows              0      0.00%    100.00% # Request fanout histogram
system.tol2bus.snoop_fanout::min_value              0                       # Request fanout histogram
system.tol2bus.snoop_fanout::max_value             16                       # Request fanout histogram
system.tol2bus.snoop_fanout::total              52302                       # Request fanout histogram
system.tol2bus.reqLayer0.occupancy          163966158                       # Layer occupancy (ticks)
system.tol2bus.reqLayer0.utilization             12.9                       # Layer utilization (%)
system.tol2bus.respLayer0.occupancy          28320665                       # Layer occupancy (ticks)
system.tol2bus.respLayer0.utilization             2.2                       # Layer utilization (%)
system.tol2bus.respLayer1.occupancy          44193222                       # Layer occupancy (ticks)
system.tol2bus.respLayer1.utilization             3.5                       # Layer utilization (%)
system.tol2bus.respLayer2.occupancy           4271247                       # Layer occupancy (ticks)
system.tol2bus.respLayer2.utilization             0.3                       # Layer utilization (%)
system.tol2bus.respLayer3.occupancy           5846638                       # Layer occupancy (ticks)
system.tol2bus.respLayer3.utilization             0.5                       # Layer utilization (%)
system.tol2bus.respLayer4.occupancy           1709246                       # Layer occupancy (ticks)
system.tol2bus.respLayer4.utilization             0.1                       # Layer utilization (%)
system.tol2bus.respLayer5.occupancy           1725099                       # Layer occupancy (ticks)
system.tol2bus.respLayer5.utilization             0.1                       # Layer utilization (%)
system.tol2bus.respLayer6.occupancy           1602812                       # Layer occupancy (ticks)
system.tol2bus.respLayer6.utilization             0.1                       # Layer utilization (%)
system.tol2bus.respLayer7.occupancy           1656670                       # Layer occupancy (ticks)
system.tol2bus.respLayer7.utilization             0.1                       # Layer utilization (%)
system.tol2bus.respLayer8.occupancy           3030202                       # Layer occupancy (ticks)
system.tol2bus.respLayer8.utilization             0.2                       # Layer utilization (%)
system.tol2bus.respLayer9.occupancy           2770537                       # Layer occupancy (ticks)
system.tol2bus.respLayer9.utilization             0.2                       # Layer utilization (%)
system.tol2bus.respLayer10.occupancy          2496929                       # Layer occupancy (ticks)
system.tol2bus.respLayer10.utilization            0.2                       # Layer utilization (%)
system.tol2bus.respLayer11.occupancy          3903339                       # Layer occupancy (ticks)
system.tol2bus.respLayer11.utilization            0.3                       # Layer utilization (%)
system.tol2bus.respLayer12.occupancy          3832352                       # Layer occupancy (ticks)
system.tol2bus.respLayer12.utilization            0.3                       # Layer utilization (%)
system.tol2bus.respLayer13.occupancy          4666958                       # Layer occupancy (ticks)
system.tol2bus.respLayer13.utilization            0.4                       # Layer utilization (%)
system.tol2bus.respLayer14.occupancy          4446602                       # Layer occupancy (ticks)
system.tol2bus.respLayer14.utilization            0.3                       # Layer utilization (%)
system.tol2bus.respLayer15.occupancy          5665099                       # Layer occupancy (ticks)
system.tol2bus.respLayer15.utilization            0.4                       # Layer utilization (%)
system.tol2bus.respLayer16.occupancy          3477825                       # Layer occupancy (ticks)
system.tol2bus.respLayer16.utilization            0.3                       # Layer utilization (%)
system.tol2bus.respLayer17.occupancy          4884625                       # Layer occupancy (ticks)
system.tol2bus.respLayer17.utilization            0.4                       # Layer utilization (%)
system.tol2bus.respLayer18.occupancy          2377404                       # Layer occupancy (ticks)
system.tol2bus.respLayer18.utilization            0.2                       # Layer utilization (%)
system.tol2bus.respLayer19.occupancy          2146345                       # Layer occupancy (ticks)
system.tol2bus.respLayer19.utilization            0.2                       # Layer utilization (%)
system.tol2bus.respLayer20.occupancy          2047868                       # Layer occupancy (ticks)
system.tol2bus.respLayer20.utilization            0.2                       # Layer utilization (%)
system.tol2bus.respLayer21.occupancy          1765207                       # Layer occupancy (ticks)
system.tol2bus.respLayer21.utilization            0.1                       # Layer utilization (%)
system.tol2bus.respLayer22.occupancy          3280928                       # Layer occupancy (ticks)
system.tol2bus.respLayer22.utilization            0.3                       # Layer utilization (%)
system.tol2bus.respLayer23.occupancy          4676195                       # Layer occupancy (ticks)
system.tol2bus.respLayer23.utilization            0.4                       # Layer utilization (%)
system.tol2bus.respLayer24.occupancy          4422401                       # Layer occupancy (ticks)
system.tol2bus.respLayer24.utilization            0.3                       # Layer utilization (%)
system.tol2bus.respLayer25.occupancy          5058084                       # Layer occupancy (ticks)
system.tol2bus.respLayer25.utilization            0.4                       # Layer utilization (%)
system.tol2bus.respLayer26.occupancy          4189559                       # Layer occupancy (ticks)
system.tol2bus.respLayer26.utilization            0.3                       # Layer utilization (%)
system.tol2bus.respLayer27.occupancy          5614359                       # Layer occupancy (ticks)
system.tol2bus.respLayer27.utilization            0.4                       # Layer utilization (%)
system.tol2bus.respLayer28.occupancy          3589491                       # Layer occupancy (ticks)
system.tol2bus.respLayer28.utilization            0.3                       # Layer utilization (%)
system.tol2bus.respLayer29.occupancy          3916848                       # Layer occupancy (ticks)
system.tol2bus.respLayer29.utilization            0.3                       # Layer utilization (%)
system.tol2bus.respLayer30.occupancy          2255125                       # Layer occupancy (ticks)
system.tol2bus.respLayer30.utilization            0.2                       # Layer utilization (%)
system.tol2bus.respLayer31.occupancy          2277281                       # Layer occupancy (ticks)
system.tol2bus.respLayer31.utilization            0.2                       # Layer utilization (%)

---------- End Simulation Statistics   ----------
