
---------- Begin Simulation Statistics ----------
sim_seconds                                  0.001291                       # Number of seconds simulated
sim_ticks                                  1291242141                       # Number of ticks simulated
final_tick                                 1291242141                       # Number of ticks from beginning of simulation (restored from checkpoints and never reset)
sim_freq                                 1000000000000                       # Frequency of simulated ticks
host_inst_rate                                 217676                       # Simulator instruction rate (inst/s)
host_op_rate                                   217676                       # Simulator op (including micro ops) rate (op/s)
host_tick_rate                              135598443                       # Simulator tick rate (ticks/s)
host_mem_usage                                 697276                       # Number of bytes of host memory used
host_seconds                                     9.52                       # Real time elapsed on the host
sim_insts                                     2072826                       # Number of instructions simulated
sim_ops                                       2072826                       # Number of ops (including micro ops) simulated
system.voltage_domain.voltage                       1                       # Voltage in Volts
system.clk_domain.clock                          1000                       # Clock period in ticks
system.mem_ctrls.bytes_read::cpu00.inst        119872                       # Number of bytes read from this memory
system.mem_ctrls.bytes_read::cpu00.data        376832                       # Number of bytes read from this memory
system.mem_ctrls.bytes_read::cpu01.inst         13632                       # Number of bytes read from this memory
system.mem_ctrls.bytes_read::cpu01.data          5824                       # Number of bytes read from this memory
system.mem_ctrls.bytes_read::cpu02.inst          1024                       # Number of bytes read from this memory
system.mem_ctrls.bytes_read::cpu02.data          4480                       # Number of bytes read from this memory
system.mem_ctrls.bytes_read::cpu03.inst          1728                       # Number of bytes read from this memory
system.mem_ctrls.bytes_read::cpu03.data          5312                       # Number of bytes read from this memory
system.mem_ctrls.bytes_read::cpu04.inst           640                       # Number of bytes read from this memory
system.mem_ctrls.bytes_read::cpu04.data          5568                       # Number of bytes read from this memory
system.mem_ctrls.bytes_read::cpu05.inst          1152                       # Number of bytes read from this memory
system.mem_ctrls.bytes_read::cpu05.data          5504                       # Number of bytes read from this memory
system.mem_ctrls.bytes_read::cpu06.inst           256                       # Number of bytes read from this memory
system.mem_ctrls.bytes_read::cpu06.data          5376                       # Number of bytes read from this memory
system.mem_ctrls.bytes_read::cpu07.inst           192                       # Number of bytes read from this memory
system.mem_ctrls.bytes_read::cpu07.data          4864                       # Number of bytes read from this memory
system.mem_ctrls.bytes_read::cpu08.inst          1728                       # Number of bytes read from this memory
system.mem_ctrls.bytes_read::cpu08.data          5376                       # Number of bytes read from this memory
system.mem_ctrls.bytes_read::cpu09.inst           320                       # Number of bytes read from this memory
system.mem_ctrls.bytes_read::cpu09.data          4480                       # Number of bytes read from this memory
system.mem_ctrls.bytes_read::cpu10.inst           512                       # Number of bytes read from this memory
system.mem_ctrls.bytes_read::cpu10.data          4416                       # Number of bytes read from this memory
system.mem_ctrls.bytes_read::cpu11.inst          1728                       # Number of bytes read from this memory
system.mem_ctrls.bytes_read::cpu11.data          5632                       # Number of bytes read from this memory
system.mem_ctrls.bytes_read::cpu12.inst          3520                       # Number of bytes read from this memory
system.mem_ctrls.bytes_read::cpu12.data          5056                       # Number of bytes read from this memory
system.mem_ctrls.bytes_read::cpu13.inst           640                       # Number of bytes read from this memory
system.mem_ctrls.bytes_read::cpu13.data          5376                       # Number of bytes read from this memory
system.mem_ctrls.bytes_read::cpu14.inst           320                       # Number of bytes read from this memory
system.mem_ctrls.bytes_read::cpu14.data          4288                       # Number of bytes read from this memory
system.mem_ctrls.bytes_read::cpu15.inst           512                       # Number of bytes read from this memory
system.mem_ctrls.bytes_read::cpu15.data          5696                       # Number of bytes read from this memory
system.mem_ctrls.bytes_read::total             601856                       # Number of bytes read from this memory
system.mem_ctrls.bytes_inst_read::cpu00.inst       119872                       # Number of instructions bytes read from this memory
system.mem_ctrls.bytes_inst_read::cpu01.inst        13632                       # Number of instructions bytes read from this memory
system.mem_ctrls.bytes_inst_read::cpu02.inst         1024                       # Number of instructions bytes read from this memory
system.mem_ctrls.bytes_inst_read::cpu03.inst         1728                       # Number of instructions bytes read from this memory
system.mem_ctrls.bytes_inst_read::cpu04.inst          640                       # Number of instructions bytes read from this memory
system.mem_ctrls.bytes_inst_read::cpu05.inst         1152                       # Number of instructions bytes read from this memory
system.mem_ctrls.bytes_inst_read::cpu06.inst          256                       # Number of instructions bytes read from this memory
system.mem_ctrls.bytes_inst_read::cpu07.inst          192                       # Number of instructions bytes read from this memory
system.mem_ctrls.bytes_inst_read::cpu08.inst         1728                       # Number of instructions bytes read from this memory
system.mem_ctrls.bytes_inst_read::cpu09.inst          320                       # Number of instructions bytes read from this memory
system.mem_ctrls.bytes_inst_read::cpu10.inst          512                       # Number of instructions bytes read from this memory
system.mem_ctrls.bytes_inst_read::cpu11.inst         1728                       # Number of instructions bytes read from this memory
system.mem_ctrls.bytes_inst_read::cpu12.inst         3520                       # Number of instructions bytes read from this memory
system.mem_ctrls.bytes_inst_read::cpu13.inst          640                       # Number of instructions bytes read from this memory
system.mem_ctrls.bytes_inst_read::cpu14.inst          320                       # Number of instructions bytes read from this memory
system.mem_ctrls.bytes_inst_read::cpu15.inst          512                       # Number of instructions bytes read from this memory
system.mem_ctrls.bytes_inst_read::total        147776                       # Number of instructions bytes read from this memory
system.mem_ctrls.num_reads::cpu00.inst           1873                       # Number of read requests responded to by this memory
system.mem_ctrls.num_reads::cpu00.data           5888                       # Number of read requests responded to by this memory
system.mem_ctrls.num_reads::cpu01.inst            213                       # Number of read requests responded to by this memory
system.mem_ctrls.num_reads::cpu01.data             91                       # Number of read requests responded to by this memory
system.mem_ctrls.num_reads::cpu02.inst             16                       # Number of read requests responded to by this memory
system.mem_ctrls.num_reads::cpu02.data             70                       # Number of read requests responded to by this memory
system.mem_ctrls.num_reads::cpu03.inst             27                       # Number of read requests responded to by this memory
system.mem_ctrls.num_reads::cpu03.data             83                       # Number of read requests responded to by this memory
system.mem_ctrls.num_reads::cpu04.inst             10                       # Number of read requests responded to by this memory
system.mem_ctrls.num_reads::cpu04.data             87                       # Number of read requests responded to by this memory
system.mem_ctrls.num_reads::cpu05.inst             18                       # Number of read requests responded to by this memory
system.mem_ctrls.num_reads::cpu05.data             86                       # Number of read requests responded to by this memory
system.mem_ctrls.num_reads::cpu06.inst              4                       # Number of read requests responded to by this memory
system.mem_ctrls.num_reads::cpu06.data             84                       # Number of read requests responded to by this memory
system.mem_ctrls.num_reads::cpu07.inst              3                       # Number of read requests responded to by this memory
system.mem_ctrls.num_reads::cpu07.data             76                       # Number of read requests responded to by this memory
system.mem_ctrls.num_reads::cpu08.inst             27                       # Number of read requests responded to by this memory
system.mem_ctrls.num_reads::cpu08.data             84                       # Number of read requests responded to by this memory
system.mem_ctrls.num_reads::cpu09.inst              5                       # Number of read requests responded to by this memory
system.mem_ctrls.num_reads::cpu09.data             70                       # Number of read requests responded to by this memory
system.mem_ctrls.num_reads::cpu10.inst              8                       # Number of read requests responded to by this memory
system.mem_ctrls.num_reads::cpu10.data             69                       # Number of read requests responded to by this memory
system.mem_ctrls.num_reads::cpu11.inst             27                       # Number of read requests responded to by this memory
system.mem_ctrls.num_reads::cpu11.data             88                       # Number of read requests responded to by this memory
system.mem_ctrls.num_reads::cpu12.inst             55                       # Number of read requests responded to by this memory
system.mem_ctrls.num_reads::cpu12.data             79                       # Number of read requests responded to by this memory
system.mem_ctrls.num_reads::cpu13.inst             10                       # Number of read requests responded to by this memory
system.mem_ctrls.num_reads::cpu13.data             84                       # Number of read requests responded to by this memory
system.mem_ctrls.num_reads::cpu14.inst              5                       # Number of read requests responded to by this memory
system.mem_ctrls.num_reads::cpu14.data             67                       # Number of read requests responded to by this memory
system.mem_ctrls.num_reads::cpu15.inst              8                       # Number of read requests responded to by this memory
system.mem_ctrls.num_reads::cpu15.data             89                       # Number of read requests responded to by this memory
system.mem_ctrls.num_reads::total                9404                       # Number of read requests responded to by this memory
system.mem_ctrls.bw_read::cpu00.inst         92834641                       # Total read bandwidth from this memory (bytes/s)
system.mem_ctrls.bw_read::cpu00.data        291836820                       # Total read bandwidth from this memory (bytes/s)
system.mem_ctrls.bw_read::cpu01.inst         10557276                       # Total read bandwidth from this memory (bytes/s)
system.mem_ctrls.bw_read::cpu01.data          4510386                       # Total read bandwidth from this memory (bytes/s)
system.mem_ctrls.bw_read::cpu02.inst           793035                       # Total read bandwidth from this memory (bytes/s)
system.mem_ctrls.bw_read::cpu02.data          3469527                       # Total read bandwidth from this memory (bytes/s)
system.mem_ctrls.bw_read::cpu03.inst          1338246                       # Total read bandwidth from this memory (bytes/s)
system.mem_ctrls.bw_read::cpu03.data          4113868                       # Total read bandwidth from this memory (bytes/s)
system.mem_ctrls.bw_read::cpu04.inst           495647                       # Total read bandwidth from this memory (bytes/s)
system.mem_ctrls.bw_read::cpu04.data          4312127                       # Total read bandwidth from this memory (bytes/s)
system.mem_ctrls.bw_read::cpu05.inst           892164                       # Total read bandwidth from this memory (bytes/s)
system.mem_ctrls.bw_read::cpu05.data          4262562                       # Total read bandwidth from this memory (bytes/s)
system.mem_ctrls.bw_read::cpu06.inst           198259                       # Total read bandwidth from this memory (bytes/s)
system.mem_ctrls.bw_read::cpu06.data          4163433                       # Total read bandwidth from this memory (bytes/s)
system.mem_ctrls.bw_read::cpu07.inst           148694                       # Total read bandwidth from this memory (bytes/s)
system.mem_ctrls.bw_read::cpu07.data          3766915                       # Total read bandwidth from this memory (bytes/s)
system.mem_ctrls.bw_read::cpu08.inst          1338246                       # Total read bandwidth from this memory (bytes/s)
system.mem_ctrls.bw_read::cpu08.data          4163433                       # Total read bandwidth from this memory (bytes/s)
system.mem_ctrls.bw_read::cpu09.inst           247823                       # Total read bandwidth from this memory (bytes/s)
system.mem_ctrls.bw_read::cpu09.data          3469527                       # Total read bandwidth from this memory (bytes/s)
system.mem_ctrls.bw_read::cpu10.inst           396517                       # Total read bandwidth from this memory (bytes/s)
system.mem_ctrls.bw_read::cpu10.data          3419963                       # Total read bandwidth from this memory (bytes/s)
system.mem_ctrls.bw_read::cpu11.inst          1338246                       # Total read bandwidth from this memory (bytes/s)
system.mem_ctrls.bw_read::cpu11.data          4361692                       # Total read bandwidth from this memory (bytes/s)
system.mem_ctrls.bw_read::cpu12.inst          2726057                       # Total read bandwidth from this memory (bytes/s)
system.mem_ctrls.bw_read::cpu12.data          3915610                       # Total read bandwidth from this memory (bytes/s)
system.mem_ctrls.bw_read::cpu13.inst           495647                       # Total read bandwidth from this memory (bytes/s)
system.mem_ctrls.bw_read::cpu13.data          4163433                       # Total read bandwidth from this memory (bytes/s)
system.mem_ctrls.bw_read::cpu14.inst           247823                       # Total read bandwidth from this memory (bytes/s)
system.mem_ctrls.bw_read::cpu14.data          3320833                       # Total read bandwidth from this memory (bytes/s)
system.mem_ctrls.bw_read::cpu15.inst           396517                       # Total read bandwidth from this memory (bytes/s)
system.mem_ctrls.bw_read::cpu15.data          4411256                       # Total read bandwidth from this memory (bytes/s)
system.mem_ctrls.bw_read::total             466106225                       # Total read bandwidth from this memory (bytes/s)
system.mem_ctrls.bw_inst_read::cpu00.inst     92834641                       # Instruction read bandwidth from this memory (bytes/s)
system.mem_ctrls.bw_inst_read::cpu01.inst     10557276                       # Instruction read bandwidth from this memory (bytes/s)
system.mem_ctrls.bw_inst_read::cpu02.inst       793035                       # Instruction read bandwidth from this memory (bytes/s)
system.mem_ctrls.bw_inst_read::cpu03.inst      1338246                       # Instruction read bandwidth from this memory (bytes/s)
system.mem_ctrls.bw_inst_read::cpu04.inst       495647                       # Instruction read bandwidth from this memory (bytes/s)
system.mem_ctrls.bw_inst_read::cpu05.inst       892164                       # Instruction read bandwidth from this memory (bytes/s)
system.mem_ctrls.bw_inst_read::cpu06.inst       198259                       # Instruction read bandwidth from this memory (bytes/s)
system.mem_ctrls.bw_inst_read::cpu07.inst       148694                       # Instruction read bandwidth from this memory (bytes/s)
system.mem_ctrls.bw_inst_read::cpu08.inst      1338246                       # Instruction read bandwidth from this memory (bytes/s)
system.mem_ctrls.bw_inst_read::cpu09.inst       247823                       # Instruction read bandwidth from this memory (bytes/s)
system.mem_ctrls.bw_inst_read::cpu10.inst       396517                       # Instruction read bandwidth from this memory (bytes/s)
system.mem_ctrls.bw_inst_read::cpu11.inst      1338246                       # Instruction read bandwidth from this memory (bytes/s)
system.mem_ctrls.bw_inst_read::cpu12.inst      2726057                       # Instruction read bandwidth from this memory (bytes/s)
system.mem_ctrls.bw_inst_read::cpu13.inst       495647                       # Instruction read bandwidth from this memory (bytes/s)
system.mem_ctrls.bw_inst_read::cpu14.inst       247823                       # Instruction read bandwidth from this memory (bytes/s)
system.mem_ctrls.bw_inst_read::cpu15.inst       396517                       # Instruction read bandwidth from this memory (bytes/s)
system.mem_ctrls.bw_inst_read::total        114444840                       # Instruction read bandwidth from this memory (bytes/s)
system.mem_ctrls.bw_total::cpu00.inst        92834641                       # Total bandwidth to/from this memory (bytes/s)
system.mem_ctrls.bw_total::cpu00.data       291836820                       # Total bandwidth to/from this memory (bytes/s)
system.mem_ctrls.bw_total::cpu01.inst        10557276                       # Total bandwidth to/from this memory (bytes/s)
system.mem_ctrls.bw_total::cpu01.data         4510386                       # Total bandwidth to/from this memory (bytes/s)
system.mem_ctrls.bw_total::cpu02.inst          793035                       # Total bandwidth to/from this memory (bytes/s)
system.mem_ctrls.bw_total::cpu02.data         3469527                       # Total bandwidth to/from this memory (bytes/s)
system.mem_ctrls.bw_total::cpu03.inst         1338246                       # Total bandwidth to/from this memory (bytes/s)
system.mem_ctrls.bw_total::cpu03.data         4113868                       # Total bandwidth to/from this memory (bytes/s)
system.mem_ctrls.bw_total::cpu04.inst          495647                       # Total bandwidth to/from this memory (bytes/s)
system.mem_ctrls.bw_total::cpu04.data         4312127                       # Total bandwidth to/from this memory (bytes/s)
system.mem_ctrls.bw_total::cpu05.inst          892164                       # Total bandwidth to/from this memory (bytes/s)
system.mem_ctrls.bw_total::cpu05.data         4262562                       # Total bandwidth to/from this memory (bytes/s)
system.mem_ctrls.bw_total::cpu06.inst          198259                       # Total bandwidth to/from this memory (bytes/s)
system.mem_ctrls.bw_total::cpu06.data         4163433                       # Total bandwidth to/from this memory (bytes/s)
system.mem_ctrls.bw_total::cpu07.inst          148694                       # Total bandwidth to/from this memory (bytes/s)
system.mem_ctrls.bw_total::cpu07.data         3766915                       # Total bandwidth to/from this memory (bytes/s)
system.mem_ctrls.bw_total::cpu08.inst         1338246                       # Total bandwidth to/from this memory (bytes/s)
system.mem_ctrls.bw_total::cpu08.data         4163433                       # Total bandwidth to/from this memory (bytes/s)
system.mem_ctrls.bw_total::cpu09.inst          247823                       # Total bandwidth to/from this memory (bytes/s)
system.mem_ctrls.bw_total::cpu09.data         3469527                       # Total bandwidth to/from this memory (bytes/s)
system.mem_ctrls.bw_total::cpu10.inst          396517                       # Total bandwidth to/from this memory (bytes/s)
system.mem_ctrls.bw_total::cpu10.data         3419963                       # Total bandwidth to/from this memory (bytes/s)
system.mem_ctrls.bw_total::cpu11.inst         1338246                       # Total bandwidth to/from this memory (bytes/s)
system.mem_ctrls.bw_total::cpu11.data         4361692                       # Total bandwidth to/from this memory (bytes/s)
system.mem_ctrls.bw_total::cpu12.inst         2726057                       # Total bandwidth to/from this memory (bytes/s)
system.mem_ctrls.bw_total::cpu12.data         3915610                       # Total bandwidth to/from this memory (bytes/s)
system.mem_ctrls.bw_total::cpu13.inst          495647                       # Total bandwidth to/from this memory (bytes/s)
system.mem_ctrls.bw_total::cpu13.data         4163433                       # Total bandwidth to/from this memory (bytes/s)
system.mem_ctrls.bw_total::cpu14.inst          247823                       # Total bandwidth to/from this memory (bytes/s)
system.mem_ctrls.bw_total::cpu14.data         3320833                       # Total bandwidth to/from this memory (bytes/s)
system.mem_ctrls.bw_total::cpu15.inst          396517                       # Total bandwidth to/from this memory (bytes/s)
system.mem_ctrls.bw_total::cpu15.data         4411256                       # Total bandwidth to/from this memory (bytes/s)
system.mem_ctrls.bw_total::total            466106225                       # Total bandwidth to/from this memory (bytes/s)
system.cpu00.branchPred.lookups                133808                       # Number of BP lookups
system.cpu00.branchPred.condPredicted           74748                       # Number of conditional branches predicted
system.cpu00.branchPred.condIncorrect            5778                       # Number of conditional branches incorrect
system.cpu00.branchPred.BTBLookups              87547                       # Number of BTB lookups
system.cpu00.branchPred.BTBHits                 67114                       # Number of BTB hits
system.cpu00.branchPred.BTBCorrect                  0                       # Number of correct BTB predictions (this stat may not work properly.
system.cpu00.branchPred.BTBHitPct           76.660537                       # BTB Hit Percentage
system.cpu00.branchPred.usedRAS                 26654                       # Number of times the RAS was used to get a target.
system.cpu00.branchPred.RASInCorrect               94                       # Number of incorrect RAS predictions.
system.cpu00.branchPred.indirectLookups          3673                       # Number of indirect predictor lookups.
system.cpu00.branchPred.indirectHits             2897                       # Number of indirect target hits.
system.cpu00.branchPred.indirectMisses            776                       # Number of indirect misses.
system.cpu00.branchPredindirectMispredicted          250                       # Number of mispredicted indirect branches.
system.cpu_voltage_domain.voltage                   1                       # Voltage in Volts
system.cpu_clk_domain.clock                      1161                       # Clock period in ticks
system.cpu00.dtb.fetch_hits                         0                       # ITB hits
system.cpu00.dtb.fetch_misses                       0                       # ITB misses
system.cpu00.dtb.fetch_acv                          0                       # ITB acv
system.cpu00.dtb.fetch_accesses                     0                       # ITB accesses
system.cpu00.dtb.read_hits                     183630                       # DTB read hits
system.cpu00.dtb.read_misses                      629                       # DTB read misses
system.cpu00.dtb.read_acv                           0                       # DTB read access violations
system.cpu00.dtb.read_accesses                 184259                       # DTB read accesses
system.cpu00.dtb.write_hits                    128056                       # DTB write hits
system.cpu00.dtb.write_misses                    1116                       # DTB write misses
system.cpu00.dtb.write_acv                          0                       # DTB write access violations
system.cpu00.dtb.write_accesses                129172                       # DTB write accesses
system.cpu00.dtb.data_hits                     311686                       # DTB hits
system.cpu00.dtb.data_misses                     1745                       # DTB misses
system.cpu00.dtb.data_acv                           0                       # DTB access violations
system.cpu00.dtb.data_accesses                 313431                       # DTB accesses
system.cpu00.itb.fetch_hits                    150568                       # ITB hits
system.cpu00.itb.fetch_misses                     151                       # ITB misses
system.cpu00.itb.fetch_acv                          0                       # ITB acv
system.cpu00.itb.fetch_accesses                150719                       # ITB accesses
system.cpu00.itb.read_hits                          0                       # DTB read hits
system.cpu00.itb.read_misses                        0                       # DTB read misses
system.cpu00.itb.read_acv                           0                       # DTB read access violations
system.cpu00.itb.read_accesses                      0                       # DTB read accesses
system.cpu00.itb.write_hits                         0                       # DTB write hits
system.cpu00.itb.write_misses                       0                       # DTB write misses
system.cpu00.itb.write_acv                          0                       # DTB write access violations
system.cpu00.itb.write_accesses                     0                       # DTB write accesses
system.cpu00.itb.data_hits                          0                       # DTB hits
system.cpu00.itb.data_misses                        0                       # DTB misses
system.cpu00.itb.data_acv                           0                       # DTB access violations
system.cpu00.itb.data_accesses                      0                       # DTB accesses
system.cpu00.workload.num_syscalls               1934                       # Number of system calls
system.cpu00.numCycles                        1042841                       # number of cpu cycles simulated
system.cpu00.numWorkItemsStarted                    0                       # number of work items this cpu started
system.cpu00.numWorkItemsCompleted                  0                       # number of work items this cpu completed
system.cpu00.fetch.icacheStallCycles            88060                       # Number of cycles fetch is stalled on an Icache miss
system.cpu00.fetch.Insts                      1197234                       # Number of instructions fetch has processed
system.cpu00.fetch.Branches                    133808                       # Number of branches that fetch encountered
system.cpu00.fetch.predictedBranches            96665                       # Number of branches that fetch has predicted taken
system.cpu00.fetch.Cycles                      738589                       # Number of cycles fetch has run and was not squashing or blocked
system.cpu00.fetch.SquashCycles                 12936                       # Number of cycles fetch has spent squashing
system.cpu00.fetch.MiscStallCycles                364                       # Number of cycles fetch has spent waiting on interrupts, or bad addresses, or out of MSHRs
system.cpu00.fetch.PendingTrapStallCycles         6391                       # Number of stall cycles due to pending traps
system.cpu00.fetch.IcacheWaitRetryStallCycles          651                       # Number of stall cycles due to full MSHR
system.cpu00.fetch.CacheLines                  150568                       # Number of cache lines fetched
system.cpu00.fetch.IcacheSquashes                2719                       # Number of outstanding Icache misses that were squashed
system.cpu00.fetch.rateDist::samples           840523                       # Number of instructions fetched each cycle (Total)
system.cpu00.fetch.rateDist::mean            1.424392                       # Number of instructions fetched each cycle (Total)
system.cpu00.fetch.rateDist::stdev           2.695493                       # Number of instructions fetched each cycle (Total)
system.cpu00.fetch.rateDist::underflows             0      0.00%      0.00% # Number of instructions fetched each cycle (Total)
system.cpu00.fetch.rateDist::0                 620022     73.77%     73.77% # Number of instructions fetched each cycle (Total)
system.cpu00.fetch.rateDist::1                  16609      1.98%     75.74% # Number of instructions fetched each cycle (Total)
system.cpu00.fetch.rateDist::2                  18710      2.23%     77.97% # Number of instructions fetched each cycle (Total)
system.cpu00.fetch.rateDist::3                  17508      2.08%     80.05% # Number of instructions fetched each cycle (Total)
system.cpu00.fetch.rateDist::4                  38108      4.53%     84.59% # Number of instructions fetched each cycle (Total)
system.cpu00.fetch.rateDist::5                  16287      1.94%     86.52% # Number of instructions fetched each cycle (Total)
system.cpu00.fetch.rateDist::6                  18893      2.25%     88.77% # Number of instructions fetched each cycle (Total)
system.cpu00.fetch.rateDist::7                  11632      1.38%     90.15% # Number of instructions fetched each cycle (Total)
system.cpu00.fetch.rateDist::8                  82754      9.85%    100.00% # Number of instructions fetched each cycle (Total)
system.cpu00.fetch.rateDist::overflows              0      0.00%    100.00% # Number of instructions fetched each cycle (Total)
system.cpu00.fetch.rateDist::min_value              0                       # Number of instructions fetched each cycle (Total)
system.cpu00.fetch.rateDist::max_value              8                       # Number of instructions fetched each cycle (Total)
system.cpu00.fetch.rateDist::total             840523                       # Number of instructions fetched each cycle (Total)
system.cpu00.fetch.branchRate                0.128311                       # Number of branch fetches per cycle
system.cpu00.fetch.rate                      1.148050                       # Number of inst fetches per cycle
system.cpu00.decode.IdleCycles                  94461                       # Number of cycles decode is idle
system.cpu00.decode.BlockedCycles              577954                       # Number of cycles decode is blocked
system.cpu00.decode.RunCycles                  128359                       # Number of cycles decode is running
system.cpu00.decode.UnblockCycles               35012                       # Number of cycles decode is unblocking
system.cpu00.decode.SquashCycles                 4737                       # Number of cycles decode is squashing
system.cpu00.decode.BranchResolved              26510                       # Number of times decode resolved a branch
system.cpu00.decode.BranchMispred                1772                       # Number of times decode detected a branch misprediction
system.cpu00.decode.DecodedInsts              1128427                       # Number of instructions handled by decode
system.cpu00.decode.SquashedInsts                7311                       # Number of squashed instructions handled by decode
system.cpu00.rename.SquashCycles                 4737                       # Number of cycles rename is squashing
system.cpu00.rename.IdleCycles                 110700                       # Number of cycles rename is idle
system.cpu00.rename.BlockCycles                 94486                       # Number of cycles rename is blocking
system.cpu00.rename.serializeStallCycles       223451                       # count of cycles rename stalled for serializing inst
system.cpu00.rename.RunCycles                  147145                       # Number of cycles rename is running
system.cpu00.rename.UnblockCycles              260004                       # Number of cycles rename is unblocking
system.cpu00.rename.RenamedInsts              1108730                       # Number of instructions processed by rename
system.cpu00.rename.ROBFullEvents                2897                       # Number of times rename has blocked due to ROB full
system.cpu00.rename.IQFullEvents                25793                       # Number of times rename has blocked due to IQ full
system.cpu00.rename.LQFullEvents                 2079                       # Number of times rename has blocked due to LQ full
system.cpu00.rename.SQFullEvents               222155                       # Number of times rename has blocked due to SQ full
system.cpu00.rename.RenamedOperands            760254                       # Number of destination operands rename has renamed
system.cpu00.rename.RenameLookups             1372713                       # Number of register rename lookups that rename has made
system.cpu00.rename.int_rename_lookups        1214724                       # Number of integer rename lookups
system.cpu00.rename.fp_rename_lookups          155702                       # Number of floating rename lookups
system.cpu00.rename.CommittedMaps              669007                       # Number of HB maps that are committed
system.cpu00.rename.UndoneMaps                  91247                       # Number of HB maps that are undone due to squashing
system.cpu00.rename.serializingInsts             4086                       # count of serializing insts renamed
system.cpu00.rename.tempSerializingInsts         1713                       # count of temporary serializing insts renamed
system.cpu00.rename.skidInsts                  155950                       # count of insts added to the skid buffer
system.cpu00.memDep0.insertedLoads             180380                       # Number of loads inserted to the mem dependence unit.
system.cpu00.memDep0.insertedStores            135584                       # Number of stores inserted to the mem dependence unit.
system.cpu00.memDep0.conflictingLoads           32243                       # Number of conflicting loads.
system.cpu00.memDep0.conflictingStores          12643                       # Number of conflicting stores.
system.cpu00.iq.iqInstsAdded                   971671                       # Number of instructions added to the IQ (excludes non-spec)
system.cpu00.iq.iqNonSpecInstsAdded              2804                       # Number of non-speculative instructions added to the IQ
system.cpu00.iq.iqInstsIssued                  956299                       # Number of instructions issued
system.cpu00.iq.iqSquashedInstsIssued            1917                       # Number of squashed instructions issued
system.cpu00.iq.iqSquashedInstsExamined        104340                       # Number of squashed instructions iterated over during squash; mainly for profiling
system.cpu00.iq.iqSquashedOperandsExamined        52592                       # Number of squashed operands that are examined and possibly removed from graph
system.cpu00.iq.iqSquashedNonSpecRemoved          424                       # Number of squashed non-spec instructions that were removed
system.cpu00.iq.issued_per_cycle::samples       840523                       # Number of insts issued each cycle
system.cpu00.iq.issued_per_cycle::mean       1.137743                       # Number of insts issued each cycle
system.cpu00.iq.issued_per_cycle::stdev      1.902190                       # Number of insts issued each cycle
system.cpu00.iq.issued_per_cycle::underflows            0      0.00%      0.00% # Number of insts issued each cycle
system.cpu00.iq.issued_per_cycle::0            536814     63.87%     63.87% # Number of insts issued each cycle
system.cpu00.iq.issued_per_cycle::1             76308      9.08%     72.95% # Number of insts issued each cycle
system.cpu00.iq.issued_per_cycle::2             63437      7.55%     80.49% # Number of insts issued each cycle
system.cpu00.iq.issued_per_cycle::3             46692      5.56%     86.05% # Number of insts issued each cycle
system.cpu00.iq.issued_per_cycle::4             43600      5.19%     91.23% # Number of insts issued each cycle
system.cpu00.iq.issued_per_cycle::5             29311      3.49%     94.72% # Number of insts issued each cycle
system.cpu00.iq.issued_per_cycle::6             25787      3.07%     97.79% # Number of insts issued each cycle
system.cpu00.iq.issued_per_cycle::7             11228      1.34%     99.13% # Number of insts issued each cycle
system.cpu00.iq.issued_per_cycle::8              7346      0.87%    100.00% # Number of insts issued each cycle
system.cpu00.iq.issued_per_cycle::overflows            0      0.00%    100.00% # Number of insts issued each cycle
system.cpu00.iq.issued_per_cycle::min_value            0                       # Number of insts issued each cycle
system.cpu00.iq.issued_per_cycle::max_value            8                       # Number of insts issued each cycle
system.cpu00.iq.issued_per_cycle::total        840523                       # Number of insts issued each cycle
system.cpu00.iq.fu_full::No_OpClass                 0      0.00%      0.00% # attempts to use FU when none available
system.cpu00.iq.fu_full::IntAlu                  4600     14.87%     14.87% # attempts to use FU when none available
system.cpu00.iq.fu_full::IntMult                 4097     13.25%     28.12% # attempts to use FU when none available
system.cpu00.iq.fu_full::IntDiv                     0      0.00%     28.12% # attempts to use FU when none available
system.cpu00.iq.fu_full::FloatAdd                  86      0.28%     28.40% # attempts to use FU when none available
system.cpu00.iq.fu_full::FloatCmp                   0      0.00%     28.40% # attempts to use FU when none available
system.cpu00.iq.fu_full::FloatCvt                   0      0.00%     28.40% # attempts to use FU when none available
system.cpu00.iq.fu_full::FloatMult               5961     19.28%     47.68% # attempts to use FU when none available
system.cpu00.iq.fu_full::FloatDiv                   0      0.00%     47.68% # attempts to use FU when none available
system.cpu00.iq.fu_full::FloatSqrt                  0      0.00%     47.68% # attempts to use FU when none available
system.cpu00.iq.fu_full::SimdAdd                    0      0.00%     47.68% # attempts to use FU when none available
system.cpu00.iq.fu_full::SimdAddAcc                 0      0.00%     47.68% # attempts to use FU when none available
system.cpu00.iq.fu_full::SimdAlu                    0      0.00%     47.68% # attempts to use FU when none available
system.cpu00.iq.fu_full::SimdCmp                    0      0.00%     47.68% # attempts to use FU when none available
system.cpu00.iq.fu_full::SimdCvt                    0      0.00%     47.68% # attempts to use FU when none available
system.cpu00.iq.fu_full::SimdMisc                   0      0.00%     47.68% # attempts to use FU when none available
system.cpu00.iq.fu_full::SimdMult                   0      0.00%     47.68% # attempts to use FU when none available
system.cpu00.iq.fu_full::SimdMultAcc                0      0.00%     47.68% # attempts to use FU when none available
system.cpu00.iq.fu_full::SimdShift                  0      0.00%     47.68% # attempts to use FU when none available
system.cpu00.iq.fu_full::SimdShiftAcc               0      0.00%     47.68% # attempts to use FU when none available
system.cpu00.iq.fu_full::SimdSqrt                   0      0.00%     47.68% # attempts to use FU when none available
system.cpu00.iq.fu_full::SimdFloatAdd               0      0.00%     47.68% # attempts to use FU when none available
system.cpu00.iq.fu_full::SimdFloatAlu               0      0.00%     47.68% # attempts to use FU when none available
system.cpu00.iq.fu_full::SimdFloatCmp               0      0.00%     47.68% # attempts to use FU when none available
system.cpu00.iq.fu_full::SimdFloatCvt               0      0.00%     47.68% # attempts to use FU when none available
system.cpu00.iq.fu_full::SimdFloatDiv               0      0.00%     47.68% # attempts to use FU when none available
system.cpu00.iq.fu_full::SimdFloatMisc              0      0.00%     47.68% # attempts to use FU when none available
system.cpu00.iq.fu_full::SimdFloatMult              0      0.00%     47.68% # attempts to use FU when none available
system.cpu00.iq.fu_full::SimdFloatMultAcc            0      0.00%     47.68% # attempts to use FU when none available
system.cpu00.iq.fu_full::SimdFloatSqrt              0      0.00%     47.68% # attempts to use FU when none available
system.cpu00.iq.fu_full::MemRead                 9958     32.20%     79.87% # attempts to use FU when none available
system.cpu00.iq.fu_full::MemWrite                6224     20.13%    100.00% # attempts to use FU when none available
system.cpu00.iq.fu_full::IprAccess                  0      0.00%    100.00% # attempts to use FU when none available
system.cpu00.iq.fu_full::InstPrefetch               0      0.00%    100.00% # attempts to use FU when none available
system.cpu00.iq.FU_type_0::No_OpClass               0      0.00%      0.00% # Type of FU issued
system.cpu00.iq.FU_type_0::IntAlu              552470     57.77%     57.77% # Type of FU issued
system.cpu00.iq.FU_type_0::IntMult              12790      1.34%     59.11% # Type of FU issued
system.cpu00.iq.FU_type_0::IntDiv                   0      0.00%     59.11% # Type of FU issued
system.cpu00.iq.FU_type_0::FloatAdd             35721      3.74%     62.84% # Type of FU issued
system.cpu00.iq.FU_type_0::FloatCmp                 8      0.00%     62.85% # Type of FU issued
system.cpu00.iq.FU_type_0::FloatCvt                 0      0.00%     62.85% # Type of FU issued
system.cpu00.iq.FU_type_0::FloatMult            37102      3.88%     66.73% # Type of FU issued
system.cpu00.iq.FU_type_0::FloatDiv                16      0.00%     66.73% # Type of FU issued
system.cpu00.iq.FU_type_0::FloatSqrt                0      0.00%     66.73% # Type of FU issued
system.cpu00.iq.FU_type_0::SimdAdd                  0      0.00%     66.73% # Type of FU issued
system.cpu00.iq.FU_type_0::SimdAddAcc               0      0.00%     66.73% # Type of FU issued
system.cpu00.iq.FU_type_0::SimdAlu                  0      0.00%     66.73% # Type of FU issued
system.cpu00.iq.FU_type_0::SimdCmp                  0      0.00%     66.73% # Type of FU issued
system.cpu00.iq.FU_type_0::SimdCvt                  0      0.00%     66.73% # Type of FU issued
system.cpu00.iq.FU_type_0::SimdMisc                 0      0.00%     66.73% # Type of FU issued
system.cpu00.iq.FU_type_0::SimdMult                 0      0.00%     66.73% # Type of FU issued
system.cpu00.iq.FU_type_0::SimdMultAcc              0      0.00%     66.73% # Type of FU issued
system.cpu00.iq.FU_type_0::SimdShift                0      0.00%     66.73% # Type of FU issued
system.cpu00.iq.FU_type_0::SimdShiftAcc             0      0.00%     66.73% # Type of FU issued
system.cpu00.iq.FU_type_0::SimdSqrt                 0      0.00%     66.73% # Type of FU issued
system.cpu00.iq.FU_type_0::SimdFloatAdd             0      0.00%     66.73% # Type of FU issued
system.cpu00.iq.FU_type_0::SimdFloatAlu             0      0.00%     66.73% # Type of FU issued
system.cpu00.iq.FU_type_0::SimdFloatCmp             0      0.00%     66.73% # Type of FU issued
system.cpu00.iq.FU_type_0::SimdFloatCvt             0      0.00%     66.73% # Type of FU issued
system.cpu00.iq.FU_type_0::SimdFloatDiv             0      0.00%     66.73% # Type of FU issued
system.cpu00.iq.FU_type_0::SimdFloatMisc            0      0.00%     66.73% # Type of FU issued
system.cpu00.iq.FU_type_0::SimdFloatMult            0      0.00%     66.73% # Type of FU issued
system.cpu00.iq.FU_type_0::SimdFloatMultAcc            0      0.00%     66.73% # Type of FU issued
system.cpu00.iq.FU_type_0::SimdFloatSqrt            0      0.00%     66.73% # Type of FU issued
system.cpu00.iq.FU_type_0::MemRead             187534     19.61%     86.34% # Type of FU issued
system.cpu00.iq.FU_type_0::MemWrite            130658     13.66%    100.00% # Type of FU issued
system.cpu00.iq.FU_type_0::IprAccess                0      0.00%    100.00% # Type of FU issued
system.cpu00.iq.FU_type_0::InstPrefetch             0      0.00%    100.00% # Type of FU issued
system.cpu00.iq.FU_type_0::total               956299                       # Type of FU issued
system.cpu00.iq.rate                         0.917013                       # Inst issue rate
system.cpu00.iq.fu_busy_cnt                     30926                       # FU busy when requested
system.cpu00.iq.fu_busy_rate                 0.032339                       # FU busy rate (busy events/executed inst)
system.cpu00.iq.int_inst_queue_reads          2542294                       # Number of integer instruction queue reads
system.cpu00.iq.int_inst_queue_writes          956011                       # Number of integer instruction queue writes
system.cpu00.iq.int_inst_queue_wakeup_accesses       815491                       # Number of integer instruction queue wakeup accesses
system.cpu00.iq.fp_inst_queue_reads            243670                       # Number of floating instruction queue reads
system.cpu00.iq.fp_inst_queue_writes           123230                       # Number of floating instruction queue writes
system.cpu00.iq.fp_inst_queue_wakeup_accesses       116956                       # Number of floating instruction queue wakeup accesses
system.cpu00.iq.int_alu_accesses               862019                       # Number of integer alu accesses
system.cpu00.iq.fp_alu_accesses                125206                       # Number of floating point alu accesses
system.cpu00.iew.lsq.thread0.forwLoads          21411                       # Number of loads that had data forwarded from stores
system.cpu00.iew.lsq.thread0.invAddrLoads            0                       # Number of loads ignored due to an invalid address
system.cpu00.iew.lsq.thread0.squashedLoads        19355                       # Number of loads squashed
system.cpu00.iew.lsq.thread0.ignoredResponses          111                       # Number of memory responses ignored because the instruction is squashed
system.cpu00.iew.lsq.thread0.memOrderViolation          437                       # Number of memory ordering violations
system.cpu00.iew.lsq.thread0.squashedStores        16051                       # Number of stores squashed
system.cpu00.iew.lsq.thread0.invAddrSwpfs            0                       # Number of software prefetches ignored due to an invalid address
system.cpu00.iew.lsq.thread0.blockedLoads            0                       # Number of blocked loads due to partial load-store forwarding
system.cpu00.iew.lsq.thread0.rescheduledLoads          215                       # Number of loads that were rescheduled
system.cpu00.iew.lsq.thread0.cacheBlocked        12526                       # Number of times an access to memory failed due to the cache being blocked
system.cpu00.iew.iewIdleCycles                      0                       # Number of cycles IEW is idle
system.cpu00.iew.iewSquashCycles                 4737                       # Number of cycles IEW is squashing
system.cpu00.iew.iewBlockCycles                 23293                       # Number of cycles IEW is blocking
system.cpu00.iew.iewUnblockCycles               61227                       # Number of cycles IEW is unblocking
system.cpu00.iew.iewDispatchedInsts           1082331                       # Number of instructions dispatched to IQ
system.cpu00.iew.iewDispSquashedInsts            1474                       # Number of squashed instructions skipped by dispatch
system.cpu00.iew.iewDispLoadInsts              180380                       # Number of dispatched load instructions
system.cpu00.iew.iewDispStoreInsts             135584                       # Number of dispatched store instructions
system.cpu00.iew.iewDispNonSpecInsts             1631                       # Number of dispatched non-speculative instructions
system.cpu00.iew.iewIQFullEvents                  235                       # Number of times the IQ has become full, causing a stall
system.cpu00.iew.iewLSQFullEvents               60921                       # Number of times the LSQ has become full, causing a stall
system.cpu00.iew.memOrderViolationEvents          437                       # Number of memory order violations
system.cpu00.iew.predictedTakenIncorrect         1669                       # Number of branches that were predicted taken incorrectly
system.cpu00.iew.predictedNotTakenIncorrect         3153                       # Number of branches that were predicted not taken incorrectly
system.cpu00.iew.branchMispredicts               4822                       # Number of branch mispredicts detected at execute
system.cpu00.iew.iewExecutedInsts              948715                       # Number of executed instructions
system.cpu00.iew.iewExecLoadInsts              184277                       # Number of load instructions executed
system.cpu00.iew.iewExecSquashedInsts            7584                       # Number of squashed instructions skipped in execute
system.cpu00.iew.exec_swp                           0                       # number of swp insts executed
system.cpu00.iew.exec_nop                      107856                       # number of nop insts executed
system.cpu00.iew.exec_refs                     313456                       # number of memory reference insts executed
system.cpu00.iew.exec_branches                 110689                       # Number of branches executed
system.cpu00.iew.exec_stores                   129179                       # Number of stores executed
system.cpu00.iew.exec_rate                   0.909741                       # Inst execution rate
system.cpu00.iew.wb_sent                       935788                       # cumulative count of insts sent to commit
system.cpu00.iew.wb_count                      932447                       # cumulative count of insts written-back
system.cpu00.iew.wb_producers                  545922                       # num instructions producing a value
system.cpu00.iew.wb_consumers                  778452                       # num instructions consuming a value
system.cpu00.iew.wb_rate                     0.894141                       # insts written-back per cycle
system.cpu00.iew.wb_fanout                   0.701292                       # average fanout of values written-back
system.cpu00.commit.commitSquashedInsts        109098                       # The number of squashed insts skipped by commit
system.cpu00.commit.commitNonSpecStalls          2380                       # The number of times commit has been forced to stall to communicate backwards
system.cpu00.commit.branchMispredicts            4047                       # The number of times a branch was mispredicted
system.cpu00.commit.committed_per_cycle::samples       823333                       # Number of insts commited each cycle
system.cpu00.commit.committed_per_cycle::mean     1.176696                       # Number of insts commited each cycle
system.cpu00.commit.committed_per_cycle::stdev     2.285024                       # Number of insts commited each cycle
system.cpu00.commit.committed_per_cycle::underflows            0      0.00%      0.00% # Number of insts commited each cycle
system.cpu00.commit.committed_per_cycle::0       574711     69.80%     69.80% # Number of insts commited each cycle
system.cpu00.commit.committed_per_cycle::1        52244      6.35%     76.15% # Number of insts commited each cycle
system.cpu00.commit.committed_per_cycle::2        51258      6.23%     82.37% # Number of insts commited each cycle
system.cpu00.commit.committed_per_cycle::3        29965      3.64%     86.01% # Number of insts commited each cycle
system.cpu00.commit.committed_per_cycle::4        34863      4.23%     90.25% # Number of insts commited each cycle
system.cpu00.commit.committed_per_cycle::5         9023      1.10%     91.34% # Number of insts commited each cycle
system.cpu00.commit.committed_per_cycle::6        12872      1.56%     92.91% # Number of insts commited each cycle
system.cpu00.commit.committed_per_cycle::7         4817      0.59%     93.49% # Number of insts commited each cycle
system.cpu00.commit.committed_per_cycle::8        53580      6.51%    100.00% # Number of insts commited each cycle
system.cpu00.commit.committed_per_cycle::overflows            0      0.00%    100.00% # Number of insts commited each cycle
system.cpu00.commit.committed_per_cycle::min_value            0                       # Number of insts commited each cycle
system.cpu00.commit.committed_per_cycle::max_value            8                       # Number of insts commited each cycle
system.cpu00.commit.committed_per_cycle::total       823333                       # Number of insts commited each cycle
system.cpu00.commit.committedInsts             968813                       # Number of instructions committed
system.cpu00.commit.committedOps               968813                       # Number of ops (including micro ops) committed
system.cpu00.commit.swp_count                       0                       # Number of s/w prefetches committed
system.cpu00.commit.refs                       280558                       # Number of memory references committed
system.cpu00.commit.loads                      161025                       # Number of loads committed
system.cpu00.commit.membars                      1041                       # Number of memory barriers committed
system.cpu00.commit.branches                   100178                       # Number of branches committed
system.cpu00.commit.fp_insts                   116058                       # Number of committed floating point instructions.
system.cpu00.commit.int_insts                  792259                       # Number of committed integer instructions.
system.cpu00.commit.function_calls              22225                       # Number of function calls committed.
system.cpu00.commit.op_class_0::No_OpClass        98679     10.19%     10.19% # Class of committed instruction
system.cpu00.commit.op_class_0::IntAlu         503408     51.96%     62.15% # Class of committed instruction
system.cpu00.commit.op_class_0::IntMult         12689      1.31%     63.46% # Class of committed instruction
system.cpu00.commit.op_class_0::IntDiv              0      0.00%     63.46% # Class of committed instruction
system.cpu00.commit.op_class_0::FloatAdd        35480      3.66%     67.12% # Class of committed instruction
system.cpu00.commit.op_class_0::FloatCmp            8      0.00%     67.12% # Class of committed instruction
system.cpu00.commit.op_class_0::FloatCvt            0      0.00%     67.12% # Class of committed instruction
system.cpu00.commit.op_class_0::FloatMult        36935      3.81%     70.93% # Class of committed instruction
system.cpu00.commit.op_class_0::FloatDiv           14      0.00%     70.93% # Class of committed instruction
system.cpu00.commit.op_class_0::FloatSqrt            0      0.00%     70.93% # Class of committed instruction
system.cpu00.commit.op_class_0::SimdAdd             0      0.00%     70.93% # Class of committed instruction
system.cpu00.commit.op_class_0::SimdAddAcc            0      0.00%     70.93% # Class of committed instruction
system.cpu00.commit.op_class_0::SimdAlu             0      0.00%     70.93% # Class of committed instruction
system.cpu00.commit.op_class_0::SimdCmp             0      0.00%     70.93% # Class of committed instruction
system.cpu00.commit.op_class_0::SimdCvt             0      0.00%     70.93% # Class of committed instruction
system.cpu00.commit.op_class_0::SimdMisc            0      0.00%     70.93% # Class of committed instruction
system.cpu00.commit.op_class_0::SimdMult            0      0.00%     70.93% # Class of committed instruction
system.cpu00.commit.op_class_0::SimdMultAcc            0      0.00%     70.93% # Class of committed instruction
system.cpu00.commit.op_class_0::SimdShift            0      0.00%     70.93% # Class of committed instruction
system.cpu00.commit.op_class_0::SimdShiftAcc            0      0.00%     70.93% # Class of committed instruction
system.cpu00.commit.op_class_0::SimdSqrt            0      0.00%     70.93% # Class of committed instruction
system.cpu00.commit.op_class_0::SimdFloatAdd            0      0.00%     70.93% # Class of committed instruction
system.cpu00.commit.op_class_0::SimdFloatAlu            0      0.00%     70.93% # Class of committed instruction
system.cpu00.commit.op_class_0::SimdFloatCmp            0      0.00%     70.93% # Class of committed instruction
system.cpu00.commit.op_class_0::SimdFloatCvt            0      0.00%     70.93% # Class of committed instruction
system.cpu00.commit.op_class_0::SimdFloatDiv            0      0.00%     70.93% # Class of committed instruction
system.cpu00.commit.op_class_0::SimdFloatMisc            0      0.00%     70.93% # Class of committed instruction
system.cpu00.commit.op_class_0::SimdFloatMult            0      0.00%     70.93% # Class of committed instruction
system.cpu00.commit.op_class_0::SimdFloatMultAcc            0      0.00%     70.93% # Class of committed instruction
system.cpu00.commit.op_class_0::SimdFloatSqrt            0      0.00%     70.93% # Class of committed instruction
system.cpu00.commit.op_class_0::MemRead        162066     16.73%     87.66% # Class of committed instruction
system.cpu00.commit.op_class_0::MemWrite       119534     12.34%    100.00% # Class of committed instruction
system.cpu00.commit.op_class_0::IprAccess            0      0.00%    100.00% # Class of committed instruction
system.cpu00.commit.op_class_0::InstPrefetch            0      0.00%    100.00% # Class of committed instruction
system.cpu00.commit.op_class_0::total          968813                       # Class of committed instruction
system.cpu00.commit.bw_lim_events               53580                       # number cycles where commit BW limit reached
system.cpu00.rob.rob_reads                    1843673                       # The number of ROB reads
system.cpu00.rob.rob_writes                   2173124                       # The number of ROB writes
system.cpu00.timesIdled                          1400                       # Number of times that the entire CPU went into an idle state and unscheduled itself
system.cpu00.idleCycles                        202318                       # Total number of cycles that the CPU has spent unscheduled due to idling
system.cpu00.quiesceCycles                      69341                       # Total number of cycles that CPU has spent quiesced or waiting for an interrupt
system.cpu00.committedInsts                    870134                       # Number of Instructions Simulated
system.cpu00.committedOps                      870134                       # Number of Ops (including micro ops) Simulated
system.cpu00.cpi                             1.198483                       # CPI: Cycles Per Instruction
system.cpu00.cpi_total                       1.198483                       # CPI: Total CPI of All Threads
system.cpu00.ipc                             0.834388                       # IPC: Instructions Per Cycle
system.cpu00.ipc_total                       0.834388                       # IPC: Total IPC of All Threads
system.cpu00.int_regfile_reads                1145650                       # number of integer regfile reads
system.cpu00.int_regfile_writes                613741                       # number of integer regfile writes
system.cpu00.fp_regfile_reads                  151793                       # number of floating regfile reads
system.cpu00.fp_regfile_writes                 102889                       # number of floating regfile writes
system.cpu00.misc_regfile_reads                  4805                       # number of misc regfile reads
system.cpu00.misc_regfile_writes                 2258                       # number of misc regfile writes
system.cpu00.dcache.tags.replacements           17295                       # number of replacements
system.cpu00.dcache.tags.tagsinuse          62.973573                       # Cycle average of tags in use
system.cpu00.dcache.tags.total_refs            219389                       # Total number of references to valid blocks.
system.cpu00.dcache.tags.sampled_refs           17359                       # Sample count of references to valid blocks.
system.cpu00.dcache.tags.avg_refs           12.638343                       # Average number of references to valid blocks.
system.cpu00.dcache.tags.warmup_cycle        62818227                       # Cycle when the warmup percentage was hit.
system.cpu00.dcache.tags.occ_blocks::cpu00.data    62.973573                       # Average occupied blocks per requestor
system.cpu00.dcache.tags.occ_percent::cpu00.data     0.983962                       # Average percentage of cache occupancy
system.cpu00.dcache.tags.occ_percent::total     0.983962                       # Average percentage of cache occupancy
system.cpu00.dcache.tags.occ_task_id_blocks::1024           64                       # Occupied blocks per task id
system.cpu00.dcache.tags.age_task_id_blocks_1024::0           55                       # Occupied blocks per task id
system.cpu00.dcache.tags.age_task_id_blocks_1024::1            9                       # Occupied blocks per task id
system.cpu00.dcache.tags.occ_task_id_percent::1024            1                       # Percentage of cache occupancy per task id
system.cpu00.dcache.tags.tag_accesses          560121                       # Number of tag accesses
system.cpu00.dcache.tags.data_accesses         560121                       # Number of data accesses
system.cpu00.dcache.ReadReq_hits::cpu00.data       136533                       # number of ReadReq hits
system.cpu00.dcache.ReadReq_hits::total        136533                       # number of ReadReq hits
system.cpu00.dcache.WriteReq_hits::cpu00.data        80814                       # number of WriteReq hits
system.cpu00.dcache.WriteReq_hits::total        80814                       # number of WriteReq hits
system.cpu00.dcache.LoadLockedReq_hits::cpu00.data          842                       # number of LoadLockedReq hits
system.cpu00.dcache.LoadLockedReq_hits::total          842                       # number of LoadLockedReq hits
system.cpu00.dcache.StoreCondReq_hits::cpu00.data         1116                       # number of StoreCondReq hits
system.cpu00.dcache.StoreCondReq_hits::total         1116                       # number of StoreCondReq hits
system.cpu00.dcache.demand_hits::cpu00.data       217347                       # number of demand (read+write) hits
system.cpu00.dcache.demand_hits::total         217347                       # number of demand (read+write) hits
system.cpu00.dcache.overall_hits::cpu00.data       217347                       # number of overall hits
system.cpu00.dcache.overall_hits::total        217347                       # number of overall hits
system.cpu00.dcache.ReadReq_misses::cpu00.data        14052                       # number of ReadReq misses
system.cpu00.dcache.ReadReq_misses::total        14052                       # number of ReadReq misses
system.cpu00.dcache.WriteReq_misses::cpu00.data        37594                       # number of WriteReq misses
system.cpu00.dcache.WriteReq_misses::total        37594                       # number of WriteReq misses
system.cpu00.dcache.LoadLockedReq_misses::cpu00.data          349                       # number of LoadLockedReq misses
system.cpu00.dcache.LoadLockedReq_misses::total          349                       # number of LoadLockedReq misses
system.cpu00.dcache.StoreCondReq_misses::cpu00.data            9                       # number of StoreCondReq misses
system.cpu00.dcache.StoreCondReq_misses::total            9                       # number of StoreCondReq misses
system.cpu00.dcache.demand_misses::cpu00.data        51646                       # number of demand (read+write) misses
system.cpu00.dcache.demand_misses::total        51646                       # number of demand (read+write) misses
system.cpu00.dcache.overall_misses::cpu00.data        51646                       # number of overall misses
system.cpu00.dcache.overall_misses::total        51646                       # number of overall misses
system.cpu00.dcache.ReadReq_miss_latency::cpu00.data    495395217                       # number of ReadReq miss cycles
system.cpu00.dcache.ReadReq_miss_latency::total    495395217                       # number of ReadReq miss cycles
system.cpu00.dcache.WriteReq_miss_latency::cpu00.data   5514796936                       # number of WriteReq miss cycles
system.cpu00.dcache.WriteReq_miss_latency::total   5514796936                       # number of WriteReq miss cycles
system.cpu00.dcache.LoadLockedReq_miss_latency::cpu00.data      3611871                       # number of LoadLockedReq miss cycles
system.cpu00.dcache.LoadLockedReq_miss_latency::total      3611871                       # number of LoadLockedReq miss cycles
system.cpu00.dcache.StoreCondReq_miss_latency::cpu00.data       263547                       # number of StoreCondReq miss cycles
system.cpu00.dcache.StoreCondReq_miss_latency::total       263547                       # number of StoreCondReq miss cycles
system.cpu00.dcache.demand_miss_latency::cpu00.data   6010192153                       # number of demand (read+write) miss cycles
system.cpu00.dcache.demand_miss_latency::total   6010192153                       # number of demand (read+write) miss cycles
system.cpu00.dcache.overall_miss_latency::cpu00.data   6010192153                       # number of overall miss cycles
system.cpu00.dcache.overall_miss_latency::total   6010192153                       # number of overall miss cycles
system.cpu00.dcache.ReadReq_accesses::cpu00.data       150585                       # number of ReadReq accesses(hits+misses)
system.cpu00.dcache.ReadReq_accesses::total       150585                       # number of ReadReq accesses(hits+misses)
system.cpu00.dcache.WriteReq_accesses::cpu00.data       118408                       # number of WriteReq accesses(hits+misses)
system.cpu00.dcache.WriteReq_accesses::total       118408                       # number of WriteReq accesses(hits+misses)
system.cpu00.dcache.LoadLockedReq_accesses::cpu00.data         1191                       # number of LoadLockedReq accesses(hits+misses)
system.cpu00.dcache.LoadLockedReq_accesses::total         1191                       # number of LoadLockedReq accesses(hits+misses)
system.cpu00.dcache.StoreCondReq_accesses::cpu00.data         1125                       # number of StoreCondReq accesses(hits+misses)
system.cpu00.dcache.StoreCondReq_accesses::total         1125                       # number of StoreCondReq accesses(hits+misses)
system.cpu00.dcache.demand_accesses::cpu00.data       268993                       # number of demand (read+write) accesses
system.cpu00.dcache.demand_accesses::total       268993                       # number of demand (read+write) accesses
system.cpu00.dcache.overall_accesses::cpu00.data       268993                       # number of overall (read+write) accesses
system.cpu00.dcache.overall_accesses::total       268993                       # number of overall (read+write) accesses
system.cpu00.dcache.ReadReq_miss_rate::cpu00.data     0.093316                       # miss rate for ReadReq accesses
system.cpu00.dcache.ReadReq_miss_rate::total     0.093316                       # miss rate for ReadReq accesses
system.cpu00.dcache.WriteReq_miss_rate::cpu00.data     0.317495                       # miss rate for WriteReq accesses
system.cpu00.dcache.WriteReq_miss_rate::total     0.317495                       # miss rate for WriteReq accesses
system.cpu00.dcache.LoadLockedReq_miss_rate::cpu00.data     0.293031                       # miss rate for LoadLockedReq accesses
system.cpu00.dcache.LoadLockedReq_miss_rate::total     0.293031                       # miss rate for LoadLockedReq accesses
system.cpu00.dcache.StoreCondReq_miss_rate::cpu00.data     0.008000                       # miss rate for StoreCondReq accesses
system.cpu00.dcache.StoreCondReq_miss_rate::total     0.008000                       # miss rate for StoreCondReq accesses
system.cpu00.dcache.demand_miss_rate::cpu00.data     0.191998                       # miss rate for demand accesses
system.cpu00.dcache.demand_miss_rate::total     0.191998                       # miss rate for demand accesses
system.cpu00.dcache.overall_miss_rate::cpu00.data     0.191998                       # miss rate for overall accesses
system.cpu00.dcache.overall_miss_rate::total     0.191998                       # miss rate for overall accesses
system.cpu00.dcache.ReadReq_avg_miss_latency::cpu00.data 35254.427626                       # average ReadReq miss latency
system.cpu00.dcache.ReadReq_avg_miss_latency::total 35254.427626                       # average ReadReq miss latency
system.cpu00.dcache.WriteReq_avg_miss_latency::cpu00.data 146693.539820                       # average WriteReq miss latency
system.cpu00.dcache.WriteReq_avg_miss_latency::total 146693.539820                       # average WriteReq miss latency
system.cpu00.dcache.LoadLockedReq_avg_miss_latency::cpu00.data 10349.200573                       # average LoadLockedReq miss latency
system.cpu00.dcache.LoadLockedReq_avg_miss_latency::total 10349.200573                       # average LoadLockedReq miss latency
system.cpu00.dcache.StoreCondReq_avg_miss_latency::cpu00.data        29283                       # average StoreCondReq miss latency
system.cpu00.dcache.StoreCondReq_avg_miss_latency::total        29283                       # average StoreCondReq miss latency
system.cpu00.dcache.demand_avg_miss_latency::cpu00.data 116372.848875                       # average overall miss latency
system.cpu00.dcache.demand_avg_miss_latency::total 116372.848875                       # average overall miss latency
system.cpu00.dcache.overall_avg_miss_latency::cpu00.data 116372.848875                       # average overall miss latency
system.cpu00.dcache.overall_avg_miss_latency::total 116372.848875                       # average overall miss latency
system.cpu00.dcache.blocked_cycles::no_mshrs       164875                       # number of cycles access was blocked
system.cpu00.dcache.blocked_cycles::no_targets            0                       # number of cycles access was blocked
system.cpu00.dcache.blocked::no_mshrs            3590                       # number of cycles access was blocked
system.cpu00.dcache.blocked::no_targets             0                       # number of cycles access was blocked
system.cpu00.dcache.avg_blocked_cycles::no_mshrs    45.926184                       # average number of cycles each access was blocked
system.cpu00.dcache.avg_blocked_cycles::no_targets          nan                       # average number of cycles each access was blocked
system.cpu00.dcache.fast_writes                     0                       # number of fast writes performed
system.cpu00.dcache.cache_copies                    0                       # number of cache copies performed
system.cpu00.dcache.writebacks::writebacks        12775                       # number of writebacks
system.cpu00.dcache.writebacks::total           12775                       # number of writebacks
system.cpu00.dcache.ReadReq_mshr_hits::cpu00.data         4437                       # number of ReadReq MSHR hits
system.cpu00.dcache.ReadReq_mshr_hits::total         4437                       # number of ReadReq MSHR hits
system.cpu00.dcache.WriteReq_mshr_hits::cpu00.data        29839                       # number of WriteReq MSHR hits
system.cpu00.dcache.WriteReq_mshr_hits::total        29839                       # number of WriteReq MSHR hits
system.cpu00.dcache.LoadLockedReq_mshr_hits::cpu00.data          158                       # number of LoadLockedReq MSHR hits
system.cpu00.dcache.LoadLockedReq_mshr_hits::total          158                       # number of LoadLockedReq MSHR hits
system.cpu00.dcache.demand_mshr_hits::cpu00.data        34276                       # number of demand (read+write) MSHR hits
system.cpu00.dcache.demand_mshr_hits::total        34276                       # number of demand (read+write) MSHR hits
system.cpu00.dcache.overall_mshr_hits::cpu00.data        34276                       # number of overall MSHR hits
system.cpu00.dcache.overall_mshr_hits::total        34276                       # number of overall MSHR hits
system.cpu00.dcache.ReadReq_mshr_misses::cpu00.data         9615                       # number of ReadReq MSHR misses
system.cpu00.dcache.ReadReq_mshr_misses::total         9615                       # number of ReadReq MSHR misses
system.cpu00.dcache.WriteReq_mshr_misses::cpu00.data         7755                       # number of WriteReq MSHR misses
system.cpu00.dcache.WriteReq_mshr_misses::total         7755                       # number of WriteReq MSHR misses
system.cpu00.dcache.LoadLockedReq_mshr_misses::cpu00.data          191                       # number of LoadLockedReq MSHR misses
system.cpu00.dcache.LoadLockedReq_mshr_misses::total          191                       # number of LoadLockedReq MSHR misses
system.cpu00.dcache.StoreCondReq_mshr_misses::cpu00.data            8                       # number of StoreCondReq MSHR misses
system.cpu00.dcache.StoreCondReq_mshr_misses::total            8                       # number of StoreCondReq MSHR misses
system.cpu00.dcache.demand_mshr_misses::cpu00.data        17370                       # number of demand (read+write) MSHR misses
system.cpu00.dcache.demand_mshr_misses::total        17370                       # number of demand (read+write) MSHR misses
system.cpu00.dcache.overall_mshr_misses::cpu00.data        17370                       # number of overall MSHR misses
system.cpu00.dcache.overall_mshr_misses::total        17370                       # number of overall MSHR misses
system.cpu00.dcache.ReadReq_mshr_miss_latency::cpu00.data    285676821                       # number of ReadReq MSHR miss cycles
system.cpu00.dcache.ReadReq_mshr_miss_latency::total    285676821                       # number of ReadReq MSHR miss cycles
system.cpu00.dcache.WriteReq_mshr_miss_latency::cpu00.data   1170788251                       # number of WriteReq MSHR miss cycles
system.cpu00.dcache.WriteReq_mshr_miss_latency::total   1170788251                       # number of WriteReq MSHR miss cycles
system.cpu00.dcache.LoadLockedReq_mshr_miss_latency::cpu00.data      1656747                       # number of LoadLockedReq MSHR miss cycles
system.cpu00.dcache.LoadLockedReq_mshr_miss_latency::total      1656747                       # number of LoadLockedReq MSHR miss cycles
system.cpu00.dcache.StoreCondReq_mshr_miss_latency::cpu00.data       254259                       # number of StoreCondReq MSHR miss cycles
system.cpu00.dcache.StoreCondReq_mshr_miss_latency::total       254259                       # number of StoreCondReq MSHR miss cycles
system.cpu00.dcache.demand_mshr_miss_latency::cpu00.data   1456465072                       # number of demand (read+write) MSHR miss cycles
system.cpu00.dcache.demand_mshr_miss_latency::total   1456465072                       # number of demand (read+write) MSHR miss cycles
system.cpu00.dcache.overall_mshr_miss_latency::cpu00.data   1456465072                       # number of overall MSHR miss cycles
system.cpu00.dcache.overall_mshr_miss_latency::total   1456465072                       # number of overall MSHR miss cycles
system.cpu00.dcache.ReadReq_mshr_miss_rate::cpu00.data     0.063851                       # mshr miss rate for ReadReq accesses
system.cpu00.dcache.ReadReq_mshr_miss_rate::total     0.063851                       # mshr miss rate for ReadReq accesses
system.cpu00.dcache.WriteReq_mshr_miss_rate::cpu00.data     0.065494                       # mshr miss rate for WriteReq accesses
system.cpu00.dcache.WriteReq_mshr_miss_rate::total     0.065494                       # mshr miss rate for WriteReq accesses
system.cpu00.dcache.LoadLockedReq_mshr_miss_rate::cpu00.data     0.160369                       # mshr miss rate for LoadLockedReq accesses
system.cpu00.dcache.LoadLockedReq_mshr_miss_rate::total     0.160369                       # mshr miss rate for LoadLockedReq accesses
system.cpu00.dcache.StoreCondReq_mshr_miss_rate::cpu00.data     0.007111                       # mshr miss rate for StoreCondReq accesses
system.cpu00.dcache.StoreCondReq_mshr_miss_rate::total     0.007111                       # mshr miss rate for StoreCondReq accesses
system.cpu00.dcache.demand_mshr_miss_rate::cpu00.data     0.064574                       # mshr miss rate for demand accesses
system.cpu00.dcache.demand_mshr_miss_rate::total     0.064574                       # mshr miss rate for demand accesses
system.cpu00.dcache.overall_mshr_miss_rate::cpu00.data     0.064574                       # mshr miss rate for overall accesses
system.cpu00.dcache.overall_mshr_miss_rate::total     0.064574                       # mshr miss rate for overall accesses
system.cpu00.dcache.ReadReq_avg_mshr_miss_latency::cpu00.data 29711.577847                       # average ReadReq mshr miss latency
system.cpu00.dcache.ReadReq_avg_mshr_miss_latency::total 29711.577847                       # average ReadReq mshr miss latency
system.cpu00.dcache.WriteReq_avg_mshr_miss_latency::cpu00.data 150972.050419                       # average WriteReq mshr miss latency
system.cpu00.dcache.WriteReq_avg_mshr_miss_latency::total 150972.050419                       # average WriteReq mshr miss latency
system.cpu00.dcache.LoadLockedReq_avg_mshr_miss_latency::cpu00.data  8674.068063                       # average LoadLockedReq mshr miss latency
system.cpu00.dcache.LoadLockedReq_avg_mshr_miss_latency::total  8674.068063                       # average LoadLockedReq mshr miss latency
system.cpu00.dcache.StoreCondReq_avg_mshr_miss_latency::cpu00.data 31782.375000                       # average StoreCondReq mshr miss latency
system.cpu00.dcache.StoreCondReq_avg_mshr_miss_latency::total 31782.375000                       # average StoreCondReq mshr miss latency
system.cpu00.dcache.demand_avg_mshr_miss_latency::cpu00.data 83849.457225                       # average overall mshr miss latency
system.cpu00.dcache.demand_avg_mshr_miss_latency::total 83849.457225                       # average overall mshr miss latency
system.cpu00.dcache.overall_avg_mshr_miss_latency::cpu00.data 83849.457225                       # average overall mshr miss latency
[...]
system.tol2bus.pkt_count_system.cpu06.dcache.mem_side::system.l2.cpu_side         4070                       # Packet count per connected master and slave (bytes)
system.tol2bus.pkt_count_system.cpu07.icache.mem_side::system.l2.cpu_side         1025                       # Packet count per connected master and slave (bytes)
system.tol2bus.pkt_count_system.cpu07.dcache.mem_side::system.l2.cpu_side         1575                       # Packet count per connected master and slave (bytes)
system.tol2bus.pkt_count_system.cpu08.icache.mem_side::system.l2.cpu_side         2506                       # Packet count per connected master and slave (bytes)
system.tol2bus.pkt_count_system.cpu08.dcache.mem_side::system.l2.cpu_side         3937                       # Packet count per connected master and slave (bytes)
system.tol2bus.pkt_count_system.cpu09.icache.mem_side::system.l2.cpu_side         1229                       # Packet count per connected master and slave (bytes)
system.tol2bus.pkt_count_system.cpu09.dcache.mem_side::system.l2.cpu_side         1553                       # Packet count per connected master and slave (bytes)
system.tol2bus.pkt_count_system.cpu10.icache.mem_side::system.l2.cpu_side         1008                       # Packet count per connected master and slave (bytes)
system.tol2bus.pkt_count_system.cpu10.dcache.mem_side::system.l2.cpu_side         1560                       # Packet count per connected master and slave (bytes)
system.tol2bus.pkt_count_system.cpu11.icache.mem_side::system.l2.cpu_side         2467                       # Packet count per connected master and slave (bytes)
system.tol2bus.pkt_count_system.cpu11.dcache.mem_side::system.l2.cpu_side         3721                       # Packet count per connected master and slave (bytes)
system.tol2bus.pkt_count_system.cpu12.icache.mem_side::system.l2.cpu_side         1673                       # Packet count per connected master and slave (bytes)
system.tol2bus.pkt_count_system.cpu12.dcache.mem_side::system.l2.cpu_side         2032                       # Packet count per connected master and slave (bytes)
system.tol2bus.pkt_count_system.cpu13.icache.mem_side::system.l2.cpu_side         2589                       # Packet count per connected master and slave (bytes)
system.tol2bus.pkt_count_system.cpu13.dcache.mem_side::system.l2.cpu_side         4314                       # Packet count per connected master and slave (bytes)
system.tol2bus.pkt_count_system.cpu14.icache.mem_side::system.l2.cpu_side          919                       # Packet count per connected master and slave (bytes)
system.tol2bus.pkt_count_system.cpu14.dcache.mem_side::system.l2.cpu_side         1574                       # Packet count per connected master and slave (bytes)
system.tol2bus.pkt_count_system.cpu15.icache.mem_side::system.l2.cpu_side         2461                       # Packet count per connected master and slave (bytes)
system.tol2bus.pkt_count_system.cpu15.dcache.mem_side::system.l2.cpu_side         4607                       # Packet count per connected master and slave (bytes)
system.tol2bus.pkt_count::total                144527                       # Packet count per connected master and slave (bytes)
system.tol2bus.pkt_size_system.cpu00.icache.mem_side::system.l2.cpu_side       977536                       # Cumulative packet size per connected master and slave (bytes)
system.tol2bus.pkt_size_system.cpu00.dcache.mem_side::system.l2.cpu_side      1915520                       # Cumulative packet size per connected master and slave (bytes)
system.tol2bus.pkt_size_system.cpu01.icache.mem_side::system.l2.cpu_side        70592                       # Cumulative packet size per connected master and slave (bytes)
system.tol2bus.pkt_size_system.cpu01.dcache.mem_side::system.l2.cpu_side        73536                       # Cumulative packet size per connected master and slave (bytes)
system.tol2bus.pkt_size_system.cpu02.icache.mem_side::system.l2.cpu_side        40832                       # Cumulative packet size per connected master and slave (bytes)
system.tol2bus.pkt_size_system.cpu02.dcache.mem_side::system.l2.cpu_side        51840                       # Cumulative packet size per connected master and slave (bytes)
system.tol2bus.pkt_size_system.cpu03.icache.mem_side::system.l2.cpu_side        55296                       # Cumulative packet size per connected master and slave (bytes)
system.tol2bus.pkt_size_system.cpu03.dcache.mem_side::system.l2.cpu_side        60672                       # Cumulative packet size per connected master and slave (bytes)
system.tol2bus.pkt_size_system.cpu04.icache.mem_side::system.l2.cpu_side        72960                       # Cumulative packet size per connected master and slave (bytes)
system.tol2bus.pkt_size_system.cpu04.dcache.mem_side::system.l2.cpu_side       106880                       # Cumulative packet size per connected master and slave (bytes)
system.tol2bus.pkt_size_system.cpu05.icache.mem_side::system.l2.cpu_side        85888                       # Cumulative packet size per connected master and slave (bytes)
system.tol2bus.pkt_size_system.cpu05.dcache.mem_side::system.l2.cpu_side        96128                       # Cumulative packet size per connected master and slave (bytes)
system.tol2bus.pkt_size_system.cpu06.icache.mem_side::system.l2.cpu_side        97280                       # Cumulative packet size per connected master and slave (bytes)
system.tol2bus.pkt_size_system.cpu06.dcache.mem_side::system.l2.cpu_side       105152                       # Cumulative packet size per connected master and slave (bytes)
system.tol2bus.pkt_size_system.cpu07.icache.mem_side::system.l2.cpu_side        35392                       # Cumulative packet size per connected master and slave (bytes)
system.tol2bus.pkt_size_system.cpu07.dcache.mem_side::system.l2.cpu_side        48832                       # Cumulative packet size per connected master and slave (bytes)
system.tol2bus.pkt_size_system.cpu08.icache.mem_side::system.l2.cpu_side        96704                       # Cumulative packet size per connected master and slave (bytes)
system.tol2bus.pkt_size_system.cpu08.dcache.mem_side::system.l2.cpu_side       109888                       # Cumulative packet size per connected master and slave (bytes)
system.tol2bus.pkt_size_system.cpu09.icache.mem_side::system.l2.cpu_side        43264                       # Cumulative packet size per connected master and slave (bytes)
system.tol2bus.pkt_size_system.cpu09.dcache.mem_side::system.l2.cpu_side        47232                       # Cumulative packet size per connected master and slave (bytes)
system.tol2bus.pkt_size_system.cpu10.icache.mem_side::system.l2.cpu_side        34688                       # Cumulative packet size per connected master and slave (bytes)
system.tol2bus.pkt_size_system.cpu10.dcache.mem_side::system.l2.cpu_side        53248                       # Cumulative packet size per connected master and slave (bytes)
system.tol2bus.pkt_size_system.cpu11.icache.mem_side::system.l2.cpu_side        95040                       # Cumulative packet size per connected master and slave (bytes)
system.tol2bus.pkt_size_system.cpu11.dcache.mem_side::system.l2.cpu_side       105984                       # Cumulative packet size per connected master and slave (bytes)
system.tol2bus.pkt_size_system.cpu12.icache.mem_side::system.l2.cpu_side        61632                       # Cumulative packet size per connected master and slave (bytes)
system.tol2bus.pkt_size_system.cpu12.dcache.mem_side::system.l2.cpu_side        67456                       # Cumulative packet size per connected master and slave (bytes)
system.tol2bus.pkt_size_system.cpu13.icache.mem_side::system.l2.cpu_side       100160                       # Cumulative packet size per connected master and slave (bytes)
system.tol2bus.pkt_size_system.cpu13.dcache.mem_side::system.l2.cpu_side       111680                       # Cumulative packet size per connected master and slave (bytes)
system.tol2bus.pkt_size_system.cpu14.icache.mem_side::system.l2.cpu_side        31104                       # Cumulative packet size per connected master and slave (bytes)
system.tol2bus.pkt_size_system.cpu14.dcache.mem_side::system.l2.cpu_side        55872                       # Cumulative packet size per connected master and slave (bytes)
system.tol2bus.pkt_size_system.cpu15.icache.mem_side::system.l2.cpu_side        95232                       # Cumulative packet size per connected master and slave (bytes)
system.tol2bus.pkt_size_system.cpu15.dcache.mem_side::system.l2.cpu_side       130240                       # Cumulative packet size per connected master and slave (bytes)
system.tol2bus.pkt_size::total                5133760                       # Cumulative packet size per connected master and slave (bytes)
system.tol2bus.snoops                            6034                       # Total snoops (count)
system.tol2bus.snoop_fanout::samples            54370                       # Request fanout histogram
system.tol2bus.snoop_fanout::mean            1.949770                       # Request fanout histogram
system.tol2bus.snoop_fanout::stdev           3.670454                       # Request fanout histogram
system.tol2bus.snoop_fanout::underflows             0      0.00%      0.00% # Request fanout histogram
system.tol2bus.snoop_fanout::0                  33795     62.16%     62.16% # Request fanout histogram
system.tol2bus.snoop_fanout::1                   6875     12.64%     74.80% # Request fanout histogram
system.tol2bus.snoop_fanout::2                   1842      3.39%     78.19% # Request fanout histogram
system.tol2bus.snoop_fanout::3                   1334      2.45%     80.64% # Request fanout histogram
system.tol2bus.snoop_fanout::4                   1207      2.22%     82.86% # Request fanout histogram
system.tol2bus.snoop_fanout::5                   1127      2.07%     84.94% # Request fanout histogram
system.tol2bus.snoop_fanout::6                   1149      2.11%     87.05% # Request fanout histogram
system.tol2bus.snoop_fanout::7                   1044      1.92%     88.97% # Request fanout histogram
system.tol2bus.snoop_fanout::8                    884      1.63%     90.60% # Request fanout histogram
system.tol2bus.snoop_fanout::9                    866      1.59%     92.19% # Request fanout histogram
system.tol2bus.snoop_fanout::10                   817      1.50%     93.69% # Request fanout histogram
system.tol2bus.snoop_fanout::11                   853      1.57%     95.26% # Request fanout histogram
system.tol2bus.snoop_fanout::12                   762      1.40%     96.66% # Request fanout histogram
system.tol2bus.snoop_fanout::13                   658      1.21%     97.87% # Request fanout histogram
system.tol2bus.snoop_fanout::14                   689      1.27%     99.14% # Request fanout histogram
system.tol2bus.snoop_fanout::15                   468      0.86%    100.00% # Request fanout histogram
system.tol2bus.snoop_fanout::16                     0      0.00%    100.00% # Request fanout histogram
system.tol2bus.snoop_fanout::17                     0      0.00%    100.00% # Request fanout histogram
system.tol2bus.snoop_fanout::18                     0      0.00%    100.00% # Request fanout histogram
system.tol2bus.snoop_fanout::19                     0      0.00%    100.00% # Request fanout histogram
system.tol2bus.snoop_fanout::20                     0      0.00%    100.00% # Request fanout histogram
system.tol2bus.snoop_fanout::21                     0      0.00%    100.00% # Request fanout histogram
system.tol2bus.snoop_fanout::22                     0      0.00%    100.00% # Request fanout histogram
system.tol2bus.snoop_fanout::23                     0      0.00%    100.00% # Request fanout histogram
system.tol2bus.snoop_fanout::24                     0      0.00%    100.00% # Request fanout histogram
system.tol2bus.snoop_fanout::25                     0      0.00%    100.00% # Request fanout histogram
system.tol2bus.snoop_fanout::26                     0      0.00%    100.00% # Request fanout histogram
system.tol2bus.snoop_fanout::27                     0      0.00%    100.00% # Request fanout histogram
system.tol2bus.snoop_fanout::28                     0      0.00%    100.00% # Request fanout histogram
system.tol2bus.snoop_fanout::29                     0      0.00%    100.00% # Request fanout histogram
system.tol2bus.snoop_fanout::30                     0      0.00%    100.00% # Request fanout histogram
system.tol2bus.snoop_fanout::31                     0      0.00%    100.00% # Request fanout histogram
system.tol2bus.snoop_fanout::32                     0      0.00%    100.00% # Request fanout histogram
system.tol2bus.snoop_fanout::overflows              0      0.00%    100.00% # Request fanout histogram
system.tol2bus.snoop_fanout::min_value              0                       # Request fanout histogram
system.tol2bus.snoop_fanout::max_value             15                       # Request fanout histogram
system.tol2bus.snoop_fanout::total              54370                       # Request fanout histogram
system.tol2bus.reqLayer0.occupancy          188111934                       # Layer occupancy (ticks)
system.tol2bus.reqLayer0.utilization             14.6                       # Layer utilization (%)
system.tol2bus.respLayer0.occupancy          27868206                       # Layer occupancy (ticks)
system.tol2bus.respLayer0.utilization             2.2                       # Layer utilization (%)
system.tol2bus.respLayer1.occupancy          61338022                       # Layer occupancy (ticks)
system.tol2bus.respLayer1.utilization             4.8                       # Layer utilization (%)
system.tol2bus.respLayer2.occupancy           2781133                       # Layer occupancy (ticks)
system.tol2bus.respLayer2.utilization             0.2                       # Layer utilization (%)
system.tol2bus.respLayer3.occupancy           3237560                       # Layer occupancy (ticks)
system.tol2bus.respLayer3.utilization             0.3                       # Layer utilization (%)
system.tol2bus.respLayer4.occupancy           1884035                       # Layer occupancy (ticks)
system.tol2bus.respLayer4.utilization             0.1                       # Layer utilization (%)
system.tol2bus.respLayer5.occupancy           2128036                       # Layer occupancy (ticks)
system.tol2bus.respLayer5.utilization             0.2                       # Layer utilization (%)
system.tol2bus.respLayer6.occupancy           2402925                       # Layer occupancy (ticks)
system.tol2bus.respLayer6.utilization             0.2                       # Layer utilization (%)
system.tol2bus.respLayer7.occupancy           3033560                       # Layer occupancy (ticks)
system.tol2bus.respLayer7.utilization             0.2                       # Layer utilization (%)
system.tol2bus.respLayer8.occupancy           2887448                       # Layer occupancy (ticks)
system.tol2bus.respLayer8.utilization             0.2                       # Layer utilization (%)
system.tol2bus.respLayer9.occupancy           5015370                       # Layer occupancy (ticks)
system.tol2bus.respLayer9.utilization             0.4                       # Layer utilization (%)
system.tol2bus.respLayer10.occupancy          3254042                       # Layer occupancy (ticks)
system.tol2bus.respLayer10.utilization            0.3                       # Layer utilization (%)
system.tol2bus.respLayer11.occupancy          4744879                       # Layer occupancy (ticks)
system.tol2bus.respLayer11.utilization            0.4                       # Layer utilization (%)
system.tol2bus.respLayer12.occupancy          3558361                       # Layer occupancy (ticks)
system.tol2bus.respLayer12.utilization            0.3                       # Layer utilization (%)
system.tol2bus.respLayer13.occupancy          5881899                       # Layer occupancy (ticks)
system.tol2bus.respLayer13.utilization            0.5                       # Layer utilization (%)
system.tol2bus.respLayer14.occupancy          1701739                       # Layer occupancy (ticks)
system.tol2bus.respLayer14.utilization            0.1                       # Layer utilization (%)
system.tol2bus.respLayer15.occupancy          2194197                       # Layer occupancy (ticks)
system.tol2bus.respLayer15.utilization            0.2                       # Layer utilization (%)
system.tol2bus.respLayer16.occupancy          3567609                       # Layer occupancy (ticks)
system.tol2bus.respLayer16.utilization            0.3                       # Layer utilization (%)
system.tol2bus.respLayer17.occupancy          5584288                       # Layer occupancy (ticks)
system.tol2bus.respLayer17.utilization            0.4                       # Layer utilization (%)
system.tol2bus.respLayer18.occupancy          1989571                       # Layer occupancy (ticks)
system.tol2bus.respLayer18.utilization            0.2                       # Layer utilization (%)
system.tol2bus.respLayer19.occupancy          2125730                       # Layer occupancy (ticks)
system.tol2bus.respLayer19.utilization            0.2                       # Layer utilization (%)
system.tol2bus.respLayer20.occupancy          1686397                       # Layer occupancy (ticks)
system.tol2bus.respLayer20.utilization            0.1                       # Layer utilization (%)
system.tol2bus.respLayer21.occupancy          2076978                       # Layer occupancy (ticks)
system.tol2bus.respLayer21.utilization            0.2                       # Layer utilization (%)
system.tol2bus.respLayer22.occupancy          3478075                       # Layer occupancy (ticks)
system.tol2bus.respLayer22.utilization            0.3                       # Layer utilization (%)
system.tol2bus.respLayer23.occupancy          5245396                       # Layer occupancy (ticks)
system.tol2bus.respLayer23.utilization            0.4                       # Layer utilization (%)
system.tol2bus.respLayer24.occupancy          2541350                       # Layer occupancy (ticks)
system.tol2bus.respLayer24.utilization            0.2                       # Layer utilization (%)
system.tol2bus.respLayer25.occupancy          2720167                       # Layer occupancy (ticks)
system.tol2bus.respLayer25.utilization            0.2                       # Layer utilization (%)
system.tol2bus.respLayer26.occupancy          3644155                       # Layer occupancy (ticks)
system.tol2bus.respLayer26.utilization            0.3                       # Layer utilization (%)
system.tol2bus.respLayer27.occupancy          6148631                       # Layer occupancy (ticks)
system.tol2bus.respLayer27.utilization            0.5                       # Layer utilization (%)
system.tol2bus.respLayer28.occupancy          1576690                       # Layer occupancy (ticks)
system.tol2bus.respLayer28.utilization            0.1                       # Layer utilization (%)
system.tol2bus.respLayer29.occupancy          2048778                       # Layer occupancy (ticks)
system.tol2bus.respLayer29.utilization            0.2                       # Layer utilization (%)
system.tol2bus.respLayer30.occupancy          3470946                       # Layer occupancy (ticks)
system.tol2bus.respLayer30.utilization            0.3                       # Layer utilization (%)
system.tol2bus.respLayer31.occupancy          6658996                       # Layer occupancy (ticks)
system.tol2bus.respLayer31.utilization            0.5                       # Layer utilization (%)

---------- End Simulation Statistics   ----------
