
---------- Begin Simulation Statistics ----------
sim_seconds                                  0.001277                       # Number of seconds simulated
sim_ticks                                  1277346132                       # Number of ticks simulated
final_tick                                 1277346132                       # Number of ticks from beginning of simulation (restored from checkpoints and never reset)
sim_freq                                 1000000000000                       # Frequency of simulated ticks
host_inst_rate                                 221918                       # Simulator instruction rate (inst/s)
host_op_rate                                   221918                       # Simulator op (including micro ops) rate (op/s)
host_tick_rate                              129179059                       # Simulator tick rate (ticks/s)
host_mem_usage                                 697460                       # Number of bytes of host memory used
host_seconds                                     9.89                       # Real time elapsed on the host
sim_insts                                     2194358                       # Number of instructions simulated
sim_ops                                       2194358                       # Number of ops (including micro ops) simulated
system.voltage_domain.voltage                       1                       # Voltage in Volts
system.clk_domain.clock                          1000                       # Clock period in ticks
system.mem_ctrls.bytes_read::cpu00.inst        120000                       # Number of bytes read from this memory
system.mem_ctrls.bytes_read::cpu00.data        376832                       # Number of bytes read from this memory
system.mem_ctrls.bytes_read::cpu01.inst         11904                       # Number of bytes read from this memory
system.mem_ctrls.bytes_read::cpu01.data          5632                       # Number of bytes read from this memory
system.mem_ctrls.bytes_read::cpu02.inst          1536                       # Number of bytes read from this memory
system.mem_ctrls.bytes_read::cpu02.data          5760                       # Number of bytes read from this memory
system.mem_ctrls.bytes_read::cpu03.inst           896                       # Number of bytes read from this memory
system.mem_ctrls.bytes_read::cpu03.data          5504                       # Number of bytes read from this memory
system.mem_ctrls.bytes_read::cpu04.inst           448                       # Number of bytes read from this memory
system.mem_ctrls.bytes_read::cpu04.data          5440                       # Number of bytes read from this memory
system.mem_ctrls.bytes_read::cpu05.inst           256                       # Number of bytes read from this memory
system.mem_ctrls.bytes_read::cpu05.data          4544                       # Number of bytes read from this memory
system.mem_ctrls.bytes_read::cpu06.inst          3264                       # Number of bytes read from this memory
system.mem_ctrls.bytes_read::cpu06.data          5632                       # Number of bytes read from this memory
system.mem_ctrls.bytes_read::cpu07.inst           448                       # Number of bytes read from this memory
system.mem_ctrls.bytes_read::cpu07.data          5568                       # Number of bytes read from this memory
system.mem_ctrls.bytes_read::cpu08.inst           192                       # Number of bytes read from this memory
system.mem_ctrls.bytes_read::cpu08.data          5504                       # Number of bytes read from this memory
system.mem_ctrls.bytes_read::cpu09.inst          1152                       # Number of bytes read from this memory
system.mem_ctrls.bytes_read::cpu09.data          5632                       # Number of bytes read from this memory
system.mem_ctrls.bytes_read::cpu10.inst           256                       # Number of bytes read from this memory
system.mem_ctrls.bytes_read::cpu10.data          4480                       # Number of bytes read from this memory
system.mem_ctrls.bytes_read::cpu11.inst           832                       # Number of bytes read from this memory
system.mem_ctrls.bytes_read::cpu11.data          4480                       # Number of bytes read from this memory
system.mem_ctrls.bytes_read::cpu12.inst          2112                       # Number of bytes read from this memory
system.mem_ctrls.bytes_read::cpu12.data          5376                       # Number of bytes read from this memory
system.mem_ctrls.bytes_read::cpu13.inst          1152                       # Number of bytes read from this memory
system.mem_ctrls.bytes_read::cpu13.data          5376                       # Number of bytes read from this memory
system.mem_ctrls.bytes_read::cpu14.inst           384                       # Number of bytes read from this memory
system.mem_ctrls.bytes_read::cpu14.data          4352                       # Number of bytes read from this memory
system.mem_ctrls.bytes_read::cpu15.inst          3584                       # Number of bytes read from this memory
system.mem_ctrls.bytes_read::cpu15.data          5056                       # Number of bytes read from this memory
system.mem_ctrls.bytes_read::total             603584                       # Number of bytes read from this memory
system.mem_ctrls.bytes_inst_read::cpu00.inst       120000                       # Number of instructions bytes read from this memory
system.mem_ctrls.bytes_inst_read::cpu01.inst        11904                       # Number of instructions bytes read from this memory
system.mem_ctrls.bytes_inst_read::cpu02.inst         1536                       # Number of instructions bytes read from this memory
system.mem_ctrls.bytes_inst_read::cpu03.inst          896                       # Number of instructions bytes read from this memory
system.mem_ctrls.bytes_inst_read::cpu04.inst          448                       # Number of instructions bytes read from this memory
system.mem_ctrls.bytes_inst_read::cpu05.inst          256                       # Number of instructions bytes read from this memory
system.mem_ctrls.bytes_inst_read::cpu06.inst         3264                       # Number of instructions bytes read from this memory
system.mem_ctrls.bytes_inst_read::cpu07.inst          448                       # Number of instructions bytes read from this memory
system.mem_ctrls.bytes_inst_read::cpu08.inst          192                       # Number of instructions bytes read from this memory
system.mem_ctrls.bytes_inst_read::cpu09.inst         1152                       # Number of instructions bytes read from this memory
system.mem_ctrls.bytes_inst_read::cpu10.inst          256                       # Number of instructions bytes read from this memory
system.mem_ctrls.bytes_inst_read::cpu11.inst          832                       # Number of instructions bytes read from this memory
system.mem_ctrls.bytes_inst_read::cpu12.inst         2112                       # Number of instructions bytes read from this memory
system.mem_ctrls.bytes_inst_read::cpu13.inst         1152                       # Number of instructions bytes read from this memory
system.mem_ctrls.bytes_inst_read::cpu14.inst          384                       # Number of instructions bytes read from this memory
system.mem_ctrls.bytes_inst_read::cpu15.inst         3584                       # Number of instructions bytes read from this memory
system.mem_ctrls.bytes_inst_read::total        148416                       # Number of instructions bytes read from this memory
system.mem_ctrls.num_reads::cpu00.inst           1875                       # Number of read requests responded to by this memory
system.mem_ctrls.num_reads::cpu00.data           5888                       # Number of read requests responded to by this memory
system.mem_ctrls.num_reads::cpu01.inst            186                       # Number of read requests responded to by this memory
system.mem_ctrls.num_reads::cpu01.data             88                       # Number of read requests responded to by this memory
system.mem_ctrls.num_reads::cpu02.inst             24                       # Number of read requests responded to by this memory
system.mem_ctrls.num_reads::cpu02.data             90                       # Number of read requests responded to by this memory
system.mem_ctrls.num_reads::cpu03.inst             14                       # Number of read requests responded to by this memory
system.mem_ctrls.num_reads::cpu03.data             86                       # Number of read requests responded to by this memory
system.mem_ctrls.num_reads::cpu04.inst              7                       # Number of read requests responded to by this memory
system.mem_ctrls.num_reads::cpu04.data             85                       # Number of read requests responded to by this memory
system.mem_ctrls.num_reads::cpu05.inst              4                       # Number of read requests responded to by this memory
system.mem_ctrls.num_reads::cpu05.data             71                       # Number of read requests responded to by this memory
system.mem_ctrls.num_reads::cpu06.inst             51                       # Number of read requests responded to by this memory
system.mem_ctrls.num_reads::cpu06.data             88                       # Number of read requests responded to by this memory
system.mem_ctrls.num_reads::cpu07.inst              7                       # Number of read requests responded to by this memory
system.mem_ctrls.num_reads::cpu07.data             87                       # Number of read requests responded to by this memory
system.mem_ctrls.num_reads::cpu08.inst              3                       # Number of read requests responded to by this memory
system.mem_ctrls.num_reads::cpu08.data             86                       # Number of read requests responded to by this memory
system.mem_ctrls.num_reads::cpu09.inst             18                       # Number of read requests responded to by this memory
system.mem_ctrls.num_reads::cpu09.data             88                       # Number of read requests responded to by this memory
system.mem_ctrls.num_reads::cpu10.inst              4                       # Number of read requests responded to by this memory
system.mem_ctrls.num_reads::cpu10.data             70                       # Number of read requests responded to by this memory
system.mem_ctrls.num_reads::cpu11.inst             13                       # Number of read requests responded to by this memory
system.mem_ctrls.num_reads::cpu11.data             70                       # Number of read requests responded to by this memory
system.mem_ctrls.num_reads::cpu12.inst             33                       # Number of read requests responded to by this memory
system.mem_ctrls.num_reads::cpu12.data             84                       # Number of read requests responded to by this memory
system.mem_ctrls.num_reads::cpu13.inst             18                       # Number of read requests responded to by this memory
system.mem_ctrls.num_reads::cpu13.data             84                       # Number of read requests responded to by this memory
system.mem_ctrls.num_reads::cpu14.inst              6                       # Number of read requests responded to by this memory
system.mem_ctrls.num_reads::cpu14.data             68                       # Number of read requests responded to by this memory
system.mem_ctrls.num_reads::cpu15.inst             56                       # Number of read requests responded to by this memory
system.mem_ctrls.num_reads::cpu15.data             79                       # Number of read requests responded to by this memory
system.mem_ctrls.num_reads::total                9431                       # Number of read requests responded to by this memory
system.mem_ctrls.bw_read::cpu00.inst         93944779                       # Total read bandwidth from this memory (bytes/s)
system.mem_ctrls.bw_read::cpu00.data        295011658                       # Total read bandwidth from this memory (bytes/s)
system.mem_ctrls.bw_read::cpu01.inst          9319322                       # Total read bandwidth from this memory (bytes/s)
system.mem_ctrls.bw_read::cpu01.data          4409142                       # Total read bandwidth from this memory (bytes/s)
system.mem_ctrls.bw_read::cpu02.inst          1202493                       # Total read bandwidth from this memory (bytes/s)
system.mem_ctrls.bw_read::cpu02.data          4509349                       # Total read bandwidth from this memory (bytes/s)
system.mem_ctrls.bw_read::cpu03.inst           701454                       # Total read bandwidth from this memory (bytes/s)
system.mem_ctrls.bw_read::cpu03.data          4308934                       # Total read bandwidth from this memory (bytes/s)
system.mem_ctrls.bw_read::cpu04.inst           350727                       # Total read bandwidth from this memory (bytes/s)
system.mem_ctrls.bw_read::cpu04.data          4258830                       # Total read bandwidth from this memory (bytes/s)
system.mem_ctrls.bw_read::cpu05.inst           200416                       # Total read bandwidth from this memory (bytes/s)
system.mem_ctrls.bw_read::cpu05.data          3557376                       # Total read bandwidth from this memory (bytes/s)
system.mem_ctrls.bw_read::cpu06.inst          2555298                       # Total read bandwidth from this memory (bytes/s)
system.mem_ctrls.bw_read::cpu06.data          4409142                       # Total read bandwidth from this memory (bytes/s)
system.mem_ctrls.bw_read::cpu07.inst           350727                       # Total read bandwidth from this memory (bytes/s)
system.mem_ctrls.bw_read::cpu07.data          4359038                       # Total read bandwidth from this memory (bytes/s)
system.mem_ctrls.bw_read::cpu08.inst           150312                       # Total read bandwidth from this memory (bytes/s)
system.mem_ctrls.bw_read::cpu08.data          4308934                       # Total read bandwidth from this memory (bytes/s)
system.mem_ctrls.bw_read::cpu09.inst           901870                       # Total read bandwidth from this memory (bytes/s)
system.mem_ctrls.bw_read::cpu09.data          4409142                       # Total read bandwidth from this memory (bytes/s)
system.mem_ctrls.bw_read::cpu10.inst           200416                       # Total read bandwidth from this memory (bytes/s)
system.mem_ctrls.bw_read::cpu10.data          3507272                       # Total read bandwidth from this memory (bytes/s)
system.mem_ctrls.bw_read::cpu11.inst           651350                       # Total read bandwidth from this memory (bytes/s)
system.mem_ctrls.bw_read::cpu11.data          3507272                       # Total read bandwidth from this memory (bytes/s)
system.mem_ctrls.bw_read::cpu12.inst          1653428                       # Total read bandwidth from this memory (bytes/s)
system.mem_ctrls.bw_read::cpu12.data          4208726                       # Total read bandwidth from this memory (bytes/s)
system.mem_ctrls.bw_read::cpu13.inst           901870                       # Total read bandwidth from this memory (bytes/s)
system.mem_ctrls.bw_read::cpu13.data          4208726                       # Total read bandwidth from this memory (bytes/s)
system.mem_ctrls.bw_read::cpu14.inst           300623                       # Total read bandwidth from this memory (bytes/s)
system.mem_ctrls.bw_read::cpu14.data          3407064                       # Total read bandwidth from this memory (bytes/s)
system.mem_ctrls.bw_read::cpu15.inst          2805817                       # Total read bandwidth from this memory (bytes/s)
system.mem_ctrls.bw_read::cpu15.data          3958207                       # Total read bandwidth from this memory (bytes/s)
system.mem_ctrls.bw_read::total             472529712                       # Total read bandwidth from this memory (bytes/s)
system.mem_ctrls.bw_inst_read::cpu00.inst     93944779                       # Instruction read bandwidth from this memory (bytes/s)
system.mem_ctrls.bw_inst_read::cpu01.inst      9319322                       # Instruction read bandwidth from this memory (bytes/s)
system.mem_ctrls.bw_inst_read::cpu02.inst      1202493                       # Instruction read bandwidth from this memory (bytes/s)
system.mem_ctrls.bw_inst_read::cpu03.inst       701454                       # Instruction read bandwidth from this memory (bytes/s)
system.mem_ctrls.bw_inst_read::cpu04.inst       350727                       # Instruction read bandwidth from this memory (bytes/s)
system.mem_ctrls.bw_inst_read::cpu05.inst       200416                       # Instruction read bandwidth from this memory (bytes/s)
system.mem_ctrls.bw_inst_read::cpu06.inst      2555298                       # Instruction read bandwidth from this memory (bytes/s)
system.mem_ctrls.bw_inst_read::cpu07.inst       350727                       # Instruction read bandwidth from this memory (bytes/s)
system.mem_ctrls.bw_inst_read::cpu08.inst       150312                       # Instruction read bandwidth from this memory (bytes/s)
system.mem_ctrls.bw_inst_read::cpu09.inst       901870                       # Instruction read bandwidth from this memory (bytes/s)
system.mem_ctrls.bw_inst_read::cpu10.inst       200416                       # Instruction read bandwidth from this memory (bytes/s)
system.mem_ctrls.bw_inst_read::cpu11.inst       651350                       # Instruction read bandwidth from this memory (bytes/s)
system.mem_ctrls.bw_inst_read::cpu12.inst      1653428                       # Instruction read bandwidth from this memory (bytes/s)
system.mem_ctrls.bw_inst_read::cpu13.inst       901870                       # Instruction read bandwidth from this memory (bytes/s)
system.mem_ctrls.bw_inst_read::cpu14.inst       300623                       # Instruction read bandwidth from this memory (bytes/s)
system.mem_ctrls.bw_inst_read::cpu15.inst      2805817                       # Instruction read bandwidth from this memory (bytes/s)
system.mem_ctrls.bw_inst_read::total        116190903                       # Instruction read bandwidth from this memory (bytes/s)
system.mem_ctrls.bw_total::cpu00.inst        93944779                       # Total bandwidth to/from this memory (bytes/s)
system.mem_ctrls.bw_total::cpu00.data       295011658                       # Total bandwidth to/from this memory (bytes/s)
system.mem_ctrls.bw_total::cpu01.inst         9319322                       # Total bandwidth to/from this memory (bytes/s)
system.mem_ctrls.bw_total::cpu01.data         4409142                       # Total bandwidth to/from this memory (bytes/s)
system.mem_ctrls.bw_total::cpu02.inst         1202493                       # Total bandwidth to/from this memory (bytes/s)
system.mem_ctrls.bw_total::cpu02.data         4509349                       # Total bandwidth to/from this memory (bytes/s)
system.mem_ctrls.bw_total::cpu03.inst          701454                       # Total bandwidth to/from this memory (bytes/s)
system.mem_ctrls.bw_total::cpu03.data         4308934                       # Total bandwidth to/from this memory (bytes/s)
system.mem_ctrls.bw_total::cpu04.inst          350727                       # Total bandwidth to/from this memory (bytes/s)
system.mem_ctrls.bw_total::cpu04.data         4258830                       # Total bandwidth to/from this memory (bytes/s)
system.mem_ctrls.bw_total::cpu05.inst          200416                       # Total bandwidth to/from this memory (bytes/s)
system.mem_ctrls.bw_total::cpu05.data         3557376                       # Total bandwidth to/from this memory (bytes/s)
system.mem_ctrls.bw_total::cpu06.inst         2555298                       # Total bandwidth to/from this memory (bytes/s)
system.mem_ctrls.bw_total::cpu06.data         4409142                       # Total bandwidth to/from this memory (bytes/s)
system.mem_ctrls.bw_total::cpu07.inst          350727                       # Total bandwidth to/from this memory (bytes/s)
system.mem_ctrls.bw_total::cpu07.data         4359038                       # Total bandwidth to/from this memory (bytes/s)
system.mem_ctrls.bw_total::cpu08.inst          150312                       # Total bandwidth to/from this memory (bytes/s)
system.mem_ctrls.bw_total::cpu08.data         4308934                       # Total bandwidth to/from this memory (bytes/s)
system.mem_ctrls.bw_total::cpu09.inst          901870                       # Total bandwidth to/from this memory (bytes/s)
system.mem_ctrls.bw_total::cpu09.data         4409142                       # Total bandwidth to/from this memory (bytes/s)
system.mem_ctrls.bw_total::cpu10.inst          200416                       # Total bandwidth to/from this memory (bytes/s)
system.mem_ctrls.bw_total::cpu10.data         3507272                       # Total bandwidth to/from this memory (bytes/s)
system.mem_ctrls.bw_total::cpu11.inst          651350                       # Total bandwidth to/from this memory (bytes/s)
system.mem_ctrls.bw_total::cpu11.data         3507272                       # Total bandwidth to/from this memory (bytes/s)
system.mem_ctrls.bw_total::cpu12.inst         1653428                       # Total bandwidth to/from this memory (bytes/s)
system.mem_ctrls.bw_total::cpu12.data         4208726                       # Total bandwidth to/from this memory (bytes/s)
system.mem_ctrls.bw_total::cpu13.inst          901870                       # Total bandwidth to/from this memory (bytes/s)
system.mem_ctrls.bw_total::cpu13.data         4208726                       # Total bandwidth to/from this memory (bytes/s)
system.mem_ctrls.bw_total::cpu14.inst          300623                       # Total bandwidth to/from this memory (bytes/s)
system.mem_ctrls.bw_total::cpu14.data         3407064                       # Total bandwidth to/from this memory (bytes/s)
system.mem_ctrls.bw_total::cpu15.inst         2805817                       # Total bandwidth to/from this memory (bytes/s)
system.mem_ctrls.bw_total::cpu15.data         3958207                       # Total bandwidth to/from this memory (bytes/s)
system.mem_ctrls.bw_total::total            472529712                       # Total bandwidth to/from this memory (bytes/s)
system.cpu00.branchPred.lookups                133644                       # Number of BP lookups
system.cpu00.branchPred.condPredicted           74730                       # Number of conditional branches predicted
system.cpu00.branchPred.condIncorrect            5728                       # Number of conditional branches incorrect
system.cpu00.branchPred.BTBLookups              86923                       # Number of BTB lookups
system.cpu00.branchPred.BTBHits                 66841                       # Number of BTB hits
system.cpu00.branchPred.BTBCorrect                  0                       # Number of correct BTB predictions (this stat may not work properly.
system.cpu00.branchPred.BTBHitPct           76.896794                       # BTB Hit Percentage
system.cpu00.branchPred.usedRAS                 26563                       # Number of times the RAS was used to get a target.
system.cpu00.branchPred.RASInCorrect               93                       # Number of incorrect RAS predictions.
system.cpu00.branchPred.indirectLookups          3663                       # Number of indirect predictor lookups.
system.cpu00.branchPred.indirectHits             2893                       # Number of indirect target hits.
system.cpu00.branchPred.indirectMisses            770                       # Number of indirect misses.
system.cpu00.branchPredindirectMispredicted          248                       # Number of mispredicted indirect branches.
system.cpu_voltage_domain.voltage                   1                       # Voltage in Volts
system.cpu_clk_domain.clock                      1161                       # Clock period in ticks
system.cpu00.dtb.fetch_hits                         0                       # ITB hits
system.cpu00.dtb.fetch_misses                       0                       # ITB misses
system.cpu00.dtb.fetch_acv                          0                       # ITB acv
system.cpu00.dtb.fetch_accesses                     0                       # ITB accesses
system.cpu00.dtb.read_hits                     183313                       # DTB read hits
system.cpu00.dtb.read_misses                      636                       # DTB read misses
system.cpu00.dtb.read_acv                           0                       # DTB read access violations
system.cpu00.dtb.read_accesses                 183949                       # DTB read accesses
system.cpu00.dtb.write_hits                    127987                       # DTB write hits
system.cpu00.dtb.write_misses                    1060                       # DTB write misses
system.cpu00.dtb.write_acv                          0                       # DTB write access violations
system.cpu00.dtb.write_accesses                129047                       # DTB write accesses
system.cpu00.dtb.data_hits                     311300                       # DTB hits
system.cpu00.dtb.data_misses                     1696                       # DTB misses
system.cpu00.dtb.data_acv                           0                       # DTB access violations
system.cpu00.dtb.data_accesses                 312996                       # DTB accesses
system.cpu00.itb.fetch_hits                    150141                       # ITB hits
system.cpu00.itb.fetch_misses                     151                       # ITB misses
system.cpu00.itb.fetch_acv                          0                       # ITB acv
system.cpu00.itb.fetch_accesses                150292                       # ITB accesses
system.cpu00.itb.read_hits                          0                       # DTB read hits
system.cpu00.itb.read_misses                        0                       # DTB read misses
system.cpu00.itb.read_acv                           0                       # DTB read access violations
system.cpu00.itb.read_accesses                      0                       # DTB read accesses
system.cpu00.itb.write_hits                         0                       # DTB write hits
system.cpu00.itb.write_misses                       0                       # DTB write misses
system.cpu00.itb.write_acv                          0                       # DTB write access violations
system.cpu00.itb.write_accesses                     0                       # DTB write accesses
system.cpu00.itb.data_hits                          0                       # DTB hits
system.cpu00.itb.data_misses                        0                       # DTB misses
system.cpu00.itb.data_acv                           0                       # DTB access violations
system.cpu00.itb.data_accesses                      0                       # DTB accesses
system.cpu00.workload.num_syscalls               2051                       # Number of system calls
system.cpu00.numCycles                        1029627                       # number of cpu cycles simulated
system.cpu00.numWorkItemsStarted                    0                       # number of work items this cpu started
system.cpu00.numWorkItemsCompleted                  0                       # number of work items this cpu completed
system.cpu00.fetch.icacheStallCycles            82311                       # Number of cycles fetch is stalled on an Icache miss
system.cpu00.fetch.Insts                      1195830                       # Number of instructions fetch has processed
system.cpu00.fetch.Branches                    133644                       # Number of branches that fetch encountered
system.cpu00.fetch.predictedBranches            96297                       # Number of branches that fetch has predicted taken
system.cpu00.fetch.Cycles                      733367                       # Number of cycles fetch has run and was not squashing or blocked
system.cpu00.fetch.SquashCycles                 12836                       # Number of cycles fetch has spent squashing
system.cpu00.fetch.MiscStallCycles                405                       # Number of cycles fetch has spent waiting on interrupts, or bad addresses, or out of MSHRs
system.cpu00.fetch.PendingTrapStallCycles         6184                       # Number of stall cycles due to pending traps
system.cpu00.fetch.IcacheWaitRetryStallCycles          626                       # Number of stall cycles due to full MSHR
system.cpu00.fetch.CacheLines                  150141                       # Number of cache lines fetched
system.cpu00.fetch.IcacheSquashes                2610                       # Number of outstanding Icache misses that were squashed
system.cpu00.fetch.rateDist::samples           829311                       # Number of instructions fetched each cycle (Total)
system.cpu00.fetch.rateDist::mean            1.441956                       # Number of instructions fetched each cycle (Total)
system.cpu00.fetch.rateDist::stdev           2.708153                       # Number of instructions fetched each cycle (Total)
system.cpu00.fetch.rateDist::underflows             0      0.00%      0.00% # Number of instructions fetched each cycle (Total)
system.cpu00.fetch.rateDist::0                 609191     73.46%     73.46% # Number of instructions fetched each cycle (Total)
system.cpu00.fetch.rateDist::1                  16663      2.01%     75.47% # Number of instructions fetched each cycle (Total)
system.cpu00.fetch.rateDist::2                  18463      2.23%     77.69% # Number of instructions fetched each cycle (Total)
system.cpu00.fetch.rateDist::3                  17564      2.12%     79.81% # Number of instructions fetched each cycle (Total)
system.cpu00.fetch.rateDist::4                  37962      4.58%     84.39% # Number of instructions fetched each cycle (Total)
system.cpu00.fetch.rateDist::5                  16297      1.97%     86.35% # Number of instructions fetched each cycle (Total)
system.cpu00.fetch.rateDist::6                  18749      2.26%     88.61% # Number of instructions fetched each cycle (Total)
system.cpu00.fetch.rateDist::7                  11654      1.41%     90.02% # Number of instructions fetched each cycle (Total)
system.cpu00.fetch.rateDist::8                  82768      9.98%    100.00% # Number of instructions fetched each cycle (Total)
system.cpu00.fetch.rateDist::overflows              0      0.00%    100.00% # Number of instructions fetched each cycle (Total)
system.cpu00.fetch.rateDist::min_value              0                       # Number of instructions fetched each cycle (Total)
system.cpu00.fetch.rateDist::max_value              8                       # Number of instructions fetched each cycle (Total)
system.cpu00.fetch.rateDist::total             829311                       # Number of instructions fetched each cycle (Total)
system.cpu00.fetch.branchRate                0.129798                       # Number of branch fetches per cycle
system.cpu00.fetch.rate                      1.161421                       # Number of inst fetches per cycle
system.cpu00.decode.IdleCycles                  89937                       # Number of cycles decode is idle
system.cpu00.decode.BlockedCycles              571531                       # Number of cycles decode is blocked
system.cpu00.decode.RunCycles                  128517                       # Number of cycles decode is running
system.cpu00.decode.UnblockCycles               34655                       # Number of cycles decode is unblocking
system.cpu00.decode.SquashCycles                 4671                       # Number of cycles decode is squashing
system.cpu00.decode.BranchResolved              26506                       # Number of times decode resolved a branch
system.cpu00.decode.BranchMispred                1789                       # Number of times decode detected a branch misprediction
system.cpu00.decode.DecodedInsts              1127070                       # Number of instructions handled by decode
system.cpu00.decode.SquashedInsts                7342                       # Number of squashed instructions handled by decode
system.cpu00.rename.SquashCycles                 4671                       # Number of cycles rename is squashing
system.cpu00.rename.IdleCycles                 106105                       # Number of cycles rename is idle
system.cpu00.rename.BlockCycles                 92299                       # Number of cycles rename is blocking
system.cpu00.rename.serializeStallCycles       221802                       # count of cycles rename stalled for serializing inst
system.cpu00.rename.RunCycles                  146988                       # Number of cycles rename is running
system.cpu00.rename.UnblockCycles              257446                       # Number of cycles rename is unblocking
system.cpu00.rename.RenamedInsts              1107407                       # Number of instructions processed by rename
system.cpu00.rename.ROBFullEvents                2784                       # Number of times rename has blocked due to ROB full
system.cpu00.rename.IQFullEvents                24874                       # Number of times rename has blocked due to IQ full
system.cpu00.rename.LQFullEvents                 2015                       # Number of times rename has blocked due to LQ full
system.cpu00.rename.SQFullEvents               220145                       # Number of times rename has blocked due to SQ full
system.cpu00.rename.RenamedOperands            759363                       # Number of destination operands rename has renamed
system.cpu00.rename.RenameLookups             1371330                       # Number of register rename lookups that rename has made
system.cpu00.rename.int_rename_lookups        1213367                       # Number of integer rename lookups
system.cpu00.rename.fp_rename_lookups          155676                       # Number of floating rename lookups
system.cpu00.rename.CommittedMaps              668982                       # Number of HB maps that are committed
system.cpu00.rename.UndoneMaps                  90381                       # Number of HB maps that are undone due to squashing
system.cpu00.rename.serializingInsts             4087                       # count of serializing insts renamed
system.cpu00.rename.tempSerializingInsts         1715                       # count of temporary serializing insts renamed
system.cpu00.rename.skidInsts                  155042                       # count of insts added to the skid buffer
system.cpu00.memDep0.insertedLoads             179936                       # Number of loads inserted to the mem dependence unit.
system.cpu00.memDep0.insertedStores            135414                       # Number of stores inserted to the mem dependence unit.
system.cpu00.memDep0.conflictingLoads           32329                       # Number of conflicting loads.
system.cpu00.memDep0.conflictingStores          12741                       # Number of conflicting stores.
system.cpu00.iq.iqInstsAdded                   970563                       # Number of instructions added to the IQ (excludes non-spec)
system.cpu00.iq.iqNonSpecInstsAdded              2800                       # Number of non-speculative instructions added to the IQ
system.cpu00.iq.iqInstsIssued                  955313                       # Number of instructions issued
system.cpu00.iq.iqSquashedInstsIssued            1842                       # Number of squashed instructions issued
system.cpu00.iq.iqSquashedInstsExamined        103268                       # Number of squashed instructions iterated over during squash; mainly for profiling
system.cpu00.iq.iqSquashedOperandsExamined        51886                       # Number of squashed operands that are examined and possibly removed from graph
system.cpu00.iq.iqSquashedNonSpecRemoved          423                       # Number of squashed non-spec instructions that were removed
system.cpu00.iq.issued_per_cycle::samples       829311                       # Number of insts issued each cycle
system.cpu00.iq.issued_per_cycle::mean       1.151936                       # Number of insts issued each cycle
system.cpu00.iq.issued_per_cycle::stdev      1.913211                       # Number of insts issued each cycle
system.cpu00.iq.issued_per_cycle::underflows            0      0.00%      0.00% # Number of insts issued each cycle
system.cpu00.iq.issued_per_cycle::0            526989     63.55%     63.55% # Number of insts issued each cycle
system.cpu00.iq.issued_per_cycle::1             75775      9.14%     72.68% # Number of insts issued each cycle
system.cpu00.iq.issued_per_cycle::2             62243      7.51%     80.19% # Number of insts issued each cycle
system.cpu00.iq.issued_per_cycle::3             46738      5.64%     85.82% # Number of insts issued each cycle
system.cpu00.iq.issued_per_cycle::4             43754      5.28%     91.10% # Number of insts issued each cycle
system.cpu00.iq.issued_per_cycle::5             29073      3.51%     94.61% # Number of insts issued each cycle
system.cpu00.iq.issued_per_cycle::6             26148      3.15%     97.76% # Number of insts issued each cycle
system.cpu00.iq.issued_per_cycle::7             11159      1.35%     99.10% # Number of insts issued each cycle
system.cpu00.iq.issued_per_cycle::8              7432      0.90%    100.00% # Number of insts issued each cycle
system.cpu00.iq.issued_per_cycle::overflows            0      0.00%    100.00% # Number of insts issued each cycle
system.cpu00.iq.issued_per_cycle::min_value            0                       # Number of insts issued each cycle
system.cpu00.iq.issued_per_cycle::max_value            8                       # Number of insts issued each cycle
system.cpu00.iq.issued_per_cycle::total        829311                       # Number of insts issued each cycle
system.cpu00.iq.fu_full::No_OpClass                 0      0.00%      0.00% # attempts to use FU when none available
system.cpu00.iq.fu_full::IntAlu                  4763     15.24%     15.24% # attempts to use FU when none available
system.cpu00.iq.fu_full::IntMult                 4097     13.11%     28.34% # attempts to use FU when none available
system.cpu00.iq.fu_full::IntDiv                     0      0.00%     28.34% # attempts to use FU when none available
system.cpu00.iq.fu_full::FloatAdd                  82      0.26%     28.60% # attempts to use FU when none available
system.cpu00.iq.fu_full::FloatCmp                   0      0.00%     28.60% # attempts to use FU when none available
system.cpu00.iq.fu_full::FloatCvt                   0      0.00%     28.60% # attempts to use FU when none available
system.cpu00.iq.fu_full::FloatMult               5985     19.15%     47.75% # attempts to use FU when none available
system.cpu00.iq.fu_full::FloatDiv                   0      0.00%     47.75% # attempts to use FU when none available
system.cpu00.iq.fu_full::FloatSqrt                  0      0.00%     47.75% # attempts to use FU when none available
system.cpu00.iq.fu_full::SimdAdd                    0      0.00%     47.75% # attempts to use FU when none available
system.cpu00.iq.fu_full::SimdAddAcc                 0      0.00%     47.75% # attempts to use FU when none available
system.cpu00.iq.fu_full::SimdAlu                    0      0.00%     47.75% # attempts to use FU when none available
system.cpu00.iq.fu_full::SimdCmp                    0      0.00%     47.75% # attempts to use FU when none available
system.cpu00.iq.fu_full::SimdCvt                    0      0.00%     47.75% # attempts to use FU when none available
system.cpu00.iq.fu_full::SimdMisc                   0      0.00%     47.75% # attempts to use FU when none available
system.cpu00.iq.fu_full::SimdMult                   0      0.00%     47.75% # attempts to use FU when none available
system.cpu00.iq.fu_full::SimdMultAcc                0      0.00%     47.75% # attempts to use FU when none available
system.cpu00.iq.fu_full::SimdShift                  0      0.00%     47.75% # attempts to use FU when none available
system.cpu00.iq.fu_full::SimdShiftAcc               0      0.00%     47.75% # attempts to use FU when none available
system.cpu00.iq.fu_full::SimdSqrt                   0      0.00%     47.75% # attempts to use FU when none available
system.cpu00.iq.fu_full::SimdFloatAdd               0      0.00%     47.75% # attempts to use FU when none available
system.cpu00.iq.fu_full::SimdFloatAlu               0      0.00%     47.75% # attempts to use FU when none available
system.cpu00.iq.fu_full::SimdFloatCmp               0      0.00%     47.75% # attempts to use FU when none available
system.cpu00.iq.fu_full::SimdFloatCvt               0      0.00%     47.75% # attempts to use FU when none available
system.cpu00.iq.fu_full::SimdFloatDiv               0      0.00%     47.75% # attempts to use FU when none available
system.cpu00.iq.fu_full::SimdFloatMisc              0      0.00%     47.75% # attempts to use FU when none available
system.cpu00.iq.fu_full::SimdFloatMult              0      0.00%     47.75% # attempts to use FU when none available
system.cpu00.iq.fu_full::SimdFloatMultAcc            0      0.00%     47.75% # attempts to use FU when none available
system.cpu00.iq.fu_full::SimdFloatSqrt              0      0.00%     47.75% # attempts to use FU when none available
system.cpu00.iq.fu_full::MemRead                10056     32.17%     79.92% # attempts to use FU when none available
system.cpu00.iq.fu_full::MemWrite                6278     20.08%    100.00% # attempts to use FU when none available
system.cpu00.iq.fu_full::IprAccess                  0      0.00%    100.00% # attempts to use FU when none available
system.cpu00.iq.fu_full::InstPrefetch               0      0.00%    100.00% # attempts to use FU when none available
system.cpu00.iq.FU_type_0::No_OpClass               0      0.00%      0.00% # Type of FU issued
system.cpu00.iq.FU_type_0::IntAlu              552049     57.79%     57.79% # Type of FU issued
system.cpu00.iq.FU_type_0::IntMult              12784      1.34%     59.13% # Type of FU issued
system.cpu00.iq.FU_type_0::IntDiv                   0      0.00%     59.13% # Type of FU issued
system.cpu00.iq.FU_type_0::FloatAdd             35717      3.74%     62.86% # Type of FU issued
system.cpu00.iq.FU_type_0::FloatCmp                 8      0.00%     62.87% # Type of FU issued
system.cpu00.iq.FU_type_0::FloatCvt                 0      0.00%     62.87% # Type of FU issued
system.cpu00.iq.FU_type_0::FloatMult            37102      3.88%     66.75% # Type of FU issued
system.cpu00.iq.FU_type_0::FloatDiv                16      0.00%     66.75% # Type of FU issued
system.cpu00.iq.FU_type_0::FloatSqrt                0      0.00%     66.75% # Type of FU issued
system.cpu00.iq.FU_type_0::SimdAdd                  0      0.00%     66.75% # Type of FU issued
system.cpu00.iq.FU_type_0::SimdAddAcc               0      0.00%     66.75% # Type of FU issued
system.cpu00.iq.FU_type_0::SimdAlu                  0      0.00%     66.75% # Type of FU issued
system.cpu00.iq.FU_type_0::SimdCmp                  0      0.00%     66.75% # Type of FU issued
system.cpu00.iq.FU_type_0::SimdCvt                  0      0.00%     66.75% # Type of FU issued
system.cpu00.iq.FU_type_0::SimdMisc                 0      0.00%     66.75% # Type of FU issued
system.cpu00.iq.FU_type_0::SimdMult                 0      0.00%     66.75% # Type of FU issued
system.cpu00.iq.FU_type_0::SimdMultAcc              0      0.00%     66.75% # Type of FU issued
system.cpu00.iq.FU_type_0::SimdShift                0      0.00%     66.75% # Type of FU issued
system.cpu00.iq.FU_type_0::SimdShiftAcc             0      0.00%     66.75% # Type of FU issued
system.cpu00.iq.FU_type_0::SimdSqrt                 0      0.00%     66.75% # Type of FU issued
system.cpu00.iq.FU_type_0::SimdFloatAdd             0      0.00%     66.75% # Type of FU issued
system.cpu00.iq.FU_type_0::SimdFloatAlu             0      0.00%     66.75% # Type of FU issued
system.cpu00.iq.FU_type_0::SimdFloatCmp             0      0.00%     66.75% # Type of FU issued
system.cpu00.iq.FU_type_0::SimdFloatCvt             0      0.00%     66.75% # Type of FU issued
system.cpu00.iq.FU_type_0::SimdFloatDiv             0      0.00%     66.75% # Type of FU issued
system.cpu00.iq.FU_type_0::SimdFloatMisc            0      0.00%     66.75% # Type of FU issued
system.cpu00.iq.FU_type_0::SimdFloatMult            0      0.00%     66.75% # Type of FU issued
system.cpu00.iq.FU_type_0::SimdFloatMultAcc            0      0.00%     66.75% # Type of FU issued
system.cpu00.iq.FU_type_0::SimdFloatSqrt            0      0.00%     66.75% # Type of FU issued
system.cpu00.iq.FU_type_0::MemRead             187078     19.58%     86.33% # Type of FU issued
system.cpu00.iq.FU_type_0::MemWrite            130559     13.67%    100.00% # Type of FU issued
system.cpu00.iq.FU_type_0::IprAccess                0      0.00%    100.00% # Type of FU issued
system.cpu00.iq.FU_type_0::InstPrefetch             0      0.00%    100.00% # Type of FU issued
system.cpu00.iq.FU_type_0::total               955313                       # Type of FU issued
system.cpu00.iq.rate                         0.927824                       # Inst issue rate
system.cpu00.iq.fu_busy_cnt                     31261                       # FU busy when requested
system.cpu00.iq.fu_busy_rate                 0.032723                       # FU busy rate (busy events/executed inst)
system.cpu00.iq.int_inst_queue_reads          2529426                       # Number of integer instruction queue reads
system.cpu00.iq.int_inst_queue_writes          953839                       # Number of integer instruction queue writes
system.cpu00.iq.int_inst_queue_wakeup_accesses       815052                       # Number of integer instruction queue wakeup accesses
system.cpu00.iq.fp_inst_queue_reads            243614                       # Number of floating instruction queue reads
system.cpu00.iq.fp_inst_queue_writes           123218                       # Number of floating instruction queue writes
system.cpu00.iq.fp_inst_queue_wakeup_accesses       116948                       # Number of floating instruction queue wakeup accesses
system.cpu00.iq.int_alu_accesses               861380                       # Number of integer alu accesses
system.cpu00.iq.fp_alu_accesses                125194                       # Number of floating point alu accesses
system.cpu00.iew.lsq.thread0.forwLoads          21228                       # Number of loads that had data forwarded from stores
system.cpu00.iew.lsq.thread0.invAddrLoads            0                       # Number of loads ignored due to an invalid address
system.cpu00.iew.lsq.thread0.squashedLoads        18923                       # Number of loads squashed
system.cpu00.iew.lsq.thread0.ignoredResponses           75                       # Number of memory responses ignored because the instruction is squashed
system.cpu00.iew.lsq.thread0.memOrderViolation          437                       # Number of memory ordering violations
system.cpu00.iew.lsq.thread0.squashedStores        15886                       # Number of stores squashed
system.cpu00.iew.lsq.thread0.invAddrSwpfs            0                       # Number of software prefetches ignored due to an invalid address
system.cpu00.iew.lsq.thread0.blockedLoads            0                       # Number of blocked loads due to partial load-store forwarding
system.cpu00.iew.lsq.thread0.rescheduledLoads          222                       # Number of loads that were rescheduled
system.cpu00.iew.lsq.thread0.cacheBlocked        12416                       # Number of times an access to memory failed due to the cache being blocked
system.cpu00.iew.iewIdleCycles                      0                       # Number of cycles IEW is idle
system.cpu00.iew.iewSquashCycles                 4671                       # Number of cycles IEW is squashing
system.cpu00.iew.iewBlockCycles                 22736                       # Number of cycles IEW is blocking
system.cpu00.iew.iewUnblockCycles               59579                       # Number of cycles IEW is unblocking
system.cpu00.iew.iewDispatchedInsts           1081074                       # Number of instructions dispatched to IQ
system.cpu00.iew.iewDispSquashedInsts            1452                       # Number of squashed instructions skipped by dispatch
system.cpu00.iew.iewDispLoadInsts              179936                       # Number of dispatched load instructions
system.cpu00.iew.iewDispStoreInsts             135414                       # Number of dispatched store instructions
system.cpu00.iew.iewDispNonSpecInsts             1623                       # Number of dispatched non-speculative instructions
system.cpu00.iew.iewIQFullEvents                  173                       # Number of times the IQ has become full, causing a stall
system.cpu00.iew.iewLSQFullEvents               59329                       # Number of times the LSQ has become full, causing a stall
system.cpu00.iew.memOrderViolationEvents          437                       # Number of memory order violations
system.cpu00.iew.predictedTakenIncorrect         1598                       # Number of branches that were predicted taken incorrectly
system.cpu00.iew.predictedNotTakenIncorrect         3160                       # Number of branches that were predicted not taken incorrectly
system.cpu00.iew.branchMispredicts               4758                       # Number of branch mispredicts detected at execute
system.cpu00.iew.iewExecutedInsts              947936                       # Number of executed instructions
system.cpu00.iew.iewExecLoadInsts              183970                       # Number of load instructions executed
system.cpu00.iew.iewExecSquashedInsts            7377                       # Number of squashed instructions skipped in execute
system.cpu00.iew.exec_swp                           0                       # number of swp insts executed
system.cpu00.iew.exec_nop                      107711                       # number of nop insts executed
system.cpu00.iew.exec_refs                     313025                       # number of memory reference insts executed
system.cpu00.iew.exec_branches                 110580                       # Number of branches executed
system.cpu00.iew.exec_stores                   129055                       # Number of stores executed
system.cpu00.iew.exec_rate                   0.920660                       # Inst execution rate
system.cpu00.iew.wb_sent                       935262                       # cumulative count of insts sent to commit
system.cpu00.iew.wb_count                      932000                       # cumulative count of insts written-back
system.cpu00.iew.wb_producers                  546014                       # num instructions producing a value
system.cpu00.iew.wb_consumers                  778787                       # num instructions consuming a value
system.cpu00.iew.wb_rate                     0.905182                       # insts written-back per cycle
system.cpu00.iew.wb_fanout                   0.701108                       # average fanout of values written-back
system.cpu00.commit.commitSquashedInsts        107798                       # The number of squashed insts skipped by commit
system.cpu00.commit.commitNonSpecStalls          2377                       # The number of times commit has been forced to stall to communicate backwards
system.cpu00.commit.branchMispredicts            3981                       # The number of times a branch was mispredicted
system.cpu00.commit.committed_per_cycle::samples       812372                       # Number of insts commited each cycle
system.cpu00.commit.committed_per_cycle::mean     1.192508                       # Number of insts commited each cycle
system.cpu00.commit.committed_per_cycle::stdev     2.296670                       # Number of insts commited each cycle
system.cpu00.commit.committed_per_cycle::underflows            0      0.00%      0.00% # Number of insts commited each cycle
system.cpu00.commit.committed_per_cycle::0       563870     69.41%     69.41% # Number of insts commited each cycle
system.cpu00.commit.committed_per_cycle::1        52158      6.42%     75.83% # Number of insts commited each cycle
system.cpu00.commit.committed_per_cycle::2        51203      6.30%     82.13% # Number of insts commited each cycle
system.cpu00.commit.committed_per_cycle::3        30018      3.70%     85.83% # Number of insts commited each cycle
system.cpu00.commit.committed_per_cycle::4        34847      4.29%     90.12% # Number of insts commited each cycle
system.cpu00.commit.committed_per_cycle::5         9019      1.11%     91.23% # Number of insts commited each cycle
system.cpu00.commit.committed_per_cycle::6        12804      1.58%     92.80% # Number of insts commited each cycle
system.cpu00.commit.committed_per_cycle::7         4789      0.59%     93.39% # Number of insts commited each cycle
system.cpu00.commit.committed_per_cycle::8        53664      6.61%    100.00% # Number of insts commited each cycle
system.cpu00.commit.committed_per_cycle::overflows            0      0.00%    100.00% # Number of insts commited each cycle
system.cpu00.commit.committed_per_cycle::min_value            0                       # Number of insts commited each cycle
system.cpu00.commit.committed_per_cycle::max_value            8                       # Number of insts commited each cycle
system.cpu00.commit.committed_per_cycle::total       812372                       # Number of insts commited each cycle
system.cpu00.commit.committedInsts             968760                       # Number of instructions committed
system.cpu00.commit.committedOps               968760                       # Number of ops (including micro ops) committed
system.cpu00.commit.swp_count                       0                       # Number of s/w prefetches committed
system.cpu00.commit.refs                       280541                       # Number of memory references committed
system.cpu00.commit.loads                      161013                       # Number of loads committed
system.cpu00.commit.membars                      1038                       # Number of memory barriers committed
system.cpu00.commit.branches                   100167                       # Number of branches committed
system.cpu00.commit.fp_insts                   116058                       # Number of committed floating point instructions.
system.cpu00.commit.int_insts                  792222                       # Number of committed integer instructions.
system.cpu00.commit.function_calls              22221                       # Number of function calls committed.
system.cpu00.commit.op_class_0::No_OpClass        98666     10.18%     10.18% # Class of committed instruction
system.cpu00.commit.op_class_0::IntAlu         503388     51.96%     62.15% # Class of committed instruction
system.cpu00.commit.op_class_0::IntMult         12689      1.31%     63.46% # Class of committed instruction
system.cpu00.commit.op_class_0::IntDiv              0      0.00%     63.46% # Class of committed instruction
system.cpu00.commit.op_class_0::FloatAdd        35480      3.66%     67.12% # Class of committed instruction
system.cpu00.commit.op_class_0::FloatCmp            8      0.00%     67.12% # Class of committed instruction
system.cpu00.commit.op_class_0::FloatCvt            0      0.00%     67.12% # Class of committed instruction
system.cpu00.commit.op_class_0::FloatMult        36935      3.81%     70.93% # Class of committed instruction
system.cpu00.commit.op_class_0::FloatDiv           14      0.00%     70.93% # Class of committed instruction
system.cpu00.commit.op_class_0::FloatSqrt            0      0.00%     70.93% # Class of committed instruction
system.cpu00.commit.op_class_0::SimdAdd             0      0.00%     70.93% # Class of committed instruction
system.cpu00.commit.op_class_0::SimdAddAcc            0      0.00%     70.93% # Class of committed instruction
system.cpu00.commit.op_class_0::SimdAlu             0      0.00%     70.93% # Class of committed instruction
system.cpu00.commit.op_class_0::SimdCmp             0      0.00%     70.93% # Class of committed instruction
system.cpu00.commit.op_class_0::SimdCvt             0      0.00%     70.93% # Class of committed instruction
system.cpu00.commit.op_class_0::SimdMisc            0      0.00%     70.93% # Class of committed instruction
system.cpu00.commit.op_class_0::SimdMult            0      0.00%     70.93% # Class of committed instruction
system.cpu00.commit.op_class_0::SimdMultAcc            0      0.00%     70.93% # Class of committed instruction
system.cpu00.commit.op_class_0::SimdShift            0      0.00%     70.93% # Class of committed instruction
system.cpu00.commit.op_class_0::SimdShiftAcc            0      0.00%     70.93% # Class of committed instruction
system.cpu00.commit.op_class_0::SimdSqrt            0      0.00%     70.93% # Class of committed instruction
system.cpu00.commit.op_class_0::SimdFloatAdd            0      0.00%     70.93% # Class of committed instruction
system.cpu00.commit.op_class_0::SimdFloatAlu            0      0.00%     70.93% # Class of committed instruction
system.cpu00.commit.op_class_0::SimdFloatCmp            0      0.00%     70.93% # Class of committed instruction
system.cpu00.commit.op_class_0::SimdFloatCvt            0      0.00%     70.93% # Class of committed instruction
system.cpu00.commit.op_class_0::SimdFloatDiv            0      0.00%     70.93% # Class of committed instruction
system.cpu00.commit.op_class_0::SimdFloatMisc            0      0.00%     70.93% # Class of committed instruction
system.cpu00.commit.op_class_0::SimdFloatMult            0      0.00%     70.93% # Class of committed instruction
system.cpu00.commit.op_class_0::SimdFloatMultAcc            0      0.00%     70.93% # Class of committed instruction
system.cpu00.commit.op_class_0::SimdFloatSqrt            0      0.00%     70.93% # Class of committed instruction
system.cpu00.commit.op_class_0::MemRead        162051     16.73%     87.66% # Class of committed instruction
system.cpu00.commit.op_class_0::MemWrite       119529     12.34%    100.00% # Class of committed instruction
system.cpu00.commit.op_class_0::IprAccess            0      0.00%    100.00% # Class of committed instruction
system.cpu00.commit.op_class_0::InstPrefetch            0      0.00%    100.00% # Class of committed instruction
system.cpu00.commit.op_class_0::total          968760                       # Class of committed instruction
system.cpu00.commit.bw_lim_events               53664                       # number cycles where commit BW limit reached
system.cpu00.rob.rob_reads                    1831275                       # The number of ROB reads
system.cpu00.rob.rob_writes                   2170174                       # The number of ROB writes
system.cpu00.timesIdled                          1394                       # Number of times that the entire CPU went into an idle state and unscheduled itself
system.cpu00.idleCycles                        200316                       # Total number of cycles that the CPU has spent unscheduled due to idling
system.cpu00.quiesceCycles                      70586                       # Total number of cycles that CPU has spent quiesced or waiting for an interrupt
system.cpu00.committedInsts                    870094                       # Number of Instructions Simulated
system.cpu00.committedOps                      870094                       # Number of Ops (including micro ops) Simulated
system.cpu00.cpi                             1.183351                       # CPI: Cycles Per Instruction
system.cpu00.cpi_total                       1.183351                       # CPI: Total CPI of All Threads
system.cpu00.ipc                             0.845057                       # IPC: Instructions Per Cycle
system.cpu00.ipc_total                       0.845057                       # IPC: Total IPC of All Threads
system.cpu00.int_regfile_reads                1144710                       # number of integer regfile reads
system.cpu00.int_regfile_writes                613404                       # number of integer regfile writes
system.cpu00.fp_regfile_reads                  151786                       # number of floating regfile reads
system.cpu00.fp_regfile_writes                 102890                       # number of floating regfile writes
system.cpu00.misc_regfile_reads                  4780                       # number of misc regfile reads
system.cpu00.misc_regfile_writes                 2258                       # number of misc regfile writes
system.cpu00.dcache.tags.replacements           17312                       # number of replacements
system.cpu00.dcache.tags.tagsinuse          63.027393                       # Cycle average of tags in use
system.cpu00.dcache.tags.total_refs            219462                       # Total number of references to valid blocks.
system.cpu00.dcache.tags.sampled_refs           17376                       # Sample count of references to valid blocks.
system.cpu00.dcache.tags.avg_refs           12.630180                       # Average number of references to valid blocks.
system.cpu00.dcache.tags.warmup_cycle        62206380                       # Cycle when the warmup percentage was hit.
system.cpu00.dcache.tags.occ_blocks::cpu00.data    63.027393                       # Average occupied blocks per requestor
system.cpu00.dcache.tags.occ_percent::cpu00.data     0.984803                       # Average percentage of cache occupancy
system.cpu00.dcache.tags.occ_percent::total     0.984803                       # Average percentage of cache occupancy
system.cpu00.dcache.tags.occ_task_id_blocks::1024           64                       # Occupied blocks per task id
system.cpu00.dcache.tags.age_task_id_blocks_1024::0           55                       # Occupied blocks per task id
system.cpu00.dcache.tags.age_task_id_blocks_1024::1            9                       # Occupied blocks per task id
system.cpu00.dcache.tags.occ_task_id_percent::1024            1                       # Percentage of cache occupancy per task id
system.cpu00.dcache.tags.tag_accesses          560113                       # Number of tag accesses
system.cpu00.dcache.tags.data_accesses         560113                       # Number of data accesses
system.cpu00.dcache.ReadReq_hits::cpu00.data       136609                       # number of ReadReq hits
system.cpu00.dcache.ReadReq_hits::total        136609                       # number of ReadReq hits
system.cpu00.dcache.WriteReq_hits::cpu00.data        80821                       # number of WriteReq hits
system.cpu00.dcache.WriteReq_hits::total        80821                       # number of WriteReq hits
system.cpu00.dcache.LoadLockedReq_hits::cpu00.data          836                       # number of LoadLockedReq hits
system.cpu00.dcache.LoadLockedReq_hits::total          836                       # number of LoadLockedReq hits
system.cpu00.dcache.StoreCondReq_hits::cpu00.data         1115                       # number of StoreCondReq hits
system.cpu00.dcache.StoreCondReq_hits::total         1115                       # number of StoreCondReq hits
system.cpu00.dcache.demand_hits::cpu00.data       217430                       # number of demand (read+write) hits
system.cpu00.dcache.demand_hits::total         217430                       # number of demand (read+write) hits
system.cpu00.dcache.overall_hits::cpu00.data       217430                       # number of overall hits
system.cpu00.dcache.overall_hits::total        217430                       # number of overall hits
system.cpu00.dcache.ReadReq_misses::cpu00.data        13974                       # number of ReadReq misses
system.cpu00.dcache.ReadReq_misses::total        13974                       # number of ReadReq misses
system.cpu00.dcache.WriteReq_misses::cpu00.data        37582                       # number of WriteReq misses
system.cpu00.dcache.WriteReq_misses::total        37582                       # number of WriteReq misses
system.cpu00.dcache.LoadLockedReq_misses::cpu00.data          356                       # number of LoadLockedReq misses
system.cpu00.dcache.LoadLockedReq_misses::total          356                       # number of LoadLockedReq misses
system.cpu00.dcache.StoreCondReq_misses::cpu00.data           10                       # number of StoreCondReq misses
system.cpu00.dcache.StoreCondReq_misses::total           10                       # number of StoreCondReq misses
system.cpu00.dcache.demand_misses::cpu00.data        51556                       # number of demand (read+write) misses
system.cpu00.dcache.demand_misses::total        51556                       # number of demand (read+write) misses
system.cpu00.dcache.overall_misses::cpu00.data        51556                       # number of overall misses
system.cpu00.dcache.overall_misses::total        51556                       # number of overall misses
system.cpu00.dcache.ReadReq_miss_latency::cpu00.data    480436893                       # number of ReadReq miss cycles
system.cpu00.dcache.ReadReq_miss_latency::total    480436893                       # number of ReadReq miss cycles
system.cpu00.dcache.WriteReq_miss_latency::cpu00.data   5459801462                       # number of WriteReq miss cycles
system.cpu00.dcache.WriteReq_miss_latency::total   5459801462                       # number of WriteReq miss cycles
system.cpu00.dcache.LoadLockedReq_miss_latency::cpu00.data      3276342                       # number of LoadLockedReq miss cycles
system.cpu00.dcache.LoadLockedReq_miss_latency::total      3276342                       # number of LoadLockedReq miss cycles
system.cpu00.dcache.StoreCondReq_miss_latency::cpu00.data       318114                       # number of StoreCondReq miss cycles
system.cpu00.dcache.StoreCondReq_miss_latency::total       318114                       # number of StoreCondReq miss cycles
system.cpu00.dcache.demand_miss_latency::cpu00.data   5940238355                       # number of demand (read+write) miss cycles
system.cpu00.dcache.demand_miss_latency::total   5940238355                       # number of demand (read+write) miss cycles
system.cpu00.dcache.overall_miss_latency::cpu00.data   5940238355                       # number of overall miss cycles
system.cpu00.dcache.overall_miss_latency::total   5940238355                       # number of overall miss cycles
system.cpu00.dcache.ReadReq_accesses::cpu00.data       150583                       # number of ReadReq accesses(hits+misses)
system.cpu00.dcache.ReadReq_accesses::total       150583                       # number of ReadReq accesses(hits+misses)
system.cpu00.dcache.WriteReq_accesses::cpu00.data       118403                       # number of WriteReq accesses(hits+misses)
system.cpu00.dcache.WriteReq_accesses::total       118403                       # number of WriteReq accesses(hits+misses)
system.cpu00.dcache.LoadLockedReq_accesses::cpu00.data         1192                       # number of LoadLockedReq accesses(hits+misses)
system.cpu00.dcache.LoadLockedReq_accesses::total         1192                       # number of LoadLockedReq accesses(hits+misses)
system.cpu00.dcache.StoreCondReq_accesses::cpu00.data         1125                       # number of StoreCondReq accesses(hits+misses)
system.cpu00.dcache.StoreCondReq_accesses::total         1125                       # number of StoreCondReq accesses(hits+misses)
system.cpu00.dcache.demand_accesses::cpu00.data       268986                       # number of demand (read+write) accesses
system.cpu00.dcache.demand_accesses::total       268986                       # number of demand (read+write) accesses
system.cpu00.dcache.overall_accesses::cpu00.data       268986                       # number of overall (read+write) accesses
system.cpu00.dcache.overall_accesses::total       268986                       # number of overall (read+write) accesses
system.cpu00.dcache.ReadReq_miss_rate::cpu00.data     0.092799                       # miss rate for ReadReq accesses
system.cpu00.dcache.ReadReq_miss_rate::total     0.092799                       # miss rate for ReadReq accesses
system.cpu00.dcache.WriteReq_miss_rate::cpu00.data     0.317407                       # miss rate for WriteReq accesses
system.cpu00.dcache.WriteReq_miss_rate::total     0.317407                       # miss rate for WriteReq accesses
system.cpu00.dcache.LoadLockedReq_miss_rate::cpu00.data     0.298658                       # miss rate for LoadLockedReq accesses
system.cpu00.dcache.LoadLockedReq_miss_rate::total     0.298658                       # miss rate for LoadLockedReq accesses
system.cpu00.dcache.StoreCondReq_miss_rate::cpu00.data     0.008889                       # miss rate for StoreCondReq accesses
system.cpu00.dcache.StoreCondReq_miss_rate::total     0.008889                       # miss rate for StoreCondReq accesses
system.cpu00.dcache.demand_miss_rate::cpu00.data     0.191668                       # miss rate for demand accesses
system.cpu00.dcache.demand_miss_rate::total     0.191668                       # miss rate for demand accesses
system.cpu00.dcache.overall_miss_rate::cpu00.data     0.191668                       # miss rate for overall accesses
system.cpu00.dcache.overall_miss_rate::total     0.191668                       # miss rate for overall accesses
system.cpu00.dcache.ReadReq_avg_miss_latency::cpu00.data 34380.770932                       # average ReadReq miss latency
system.cpu00.dcache.ReadReq_avg_miss_latency::total 34380.770932                       # average ReadReq miss latency
system.cpu00.dcache.WriteReq_avg_miss_latency::cpu00.data 145277.033207                       # average WriteReq miss latency
system.cpu00.dcache.WriteReq_avg_miss_latency::total 145277.033207                       # average WriteReq miss latency
system.cpu00.dcache.LoadLockedReq_avg_miss_latency::cpu00.data  9203.207865                       # average LoadLockedReq miss latency
system.cpu00.dcache.LoadLockedReq_avg_miss_latency::total  9203.207865                       # average LoadLockedReq miss latency
system.cpu00.dcache.StoreCondReq_avg_miss_latency::cpu00.data 31811.400000                       # average StoreCondReq miss latency
system.cpu00.dcache.StoreCondReq_avg_miss_latency::total 31811.400000                       # average StoreCondReq miss latency
system.cpu00.dcache.demand_avg_miss_latency::cpu00.data 115219.147238                       # average overall miss latency
system.cpu00.dcache.demand_avg_miss_latency::total 115219.147238                       # average overall miss latency
system.cpu00.dcache.overall_avg_miss_latency::cpu00.data 115219.147238                       # average overall miss latency
system.cpu00.dcache.overall_avg_miss_latency::total 115219.147238                       # average overall miss latency
system.cpu00.dcache.blocked_cycles::no_mshrs       161895                       # number of cycles access was blocked
system.cpu00.dcache.blocked_cycles::no_targets            0                       # number of cycles access was blocked
system.cpu00.dcache.blocked::no_mshrs            3583                       # number of cycles access was blocked
system.cpu00.dcache.blocked::no_targets             0                       # number of cycles access was blocked
system.cpu00.dcache.avg_blocked_cycles::no_mshrs    45.184203                       # average number of cycles each access was blocked
system.cpu00.dcache.avg_blocked_cycles::no_targets          nan                       # average number of cycles each access was blocked
system.cpu00.dcache.fast_writes                     0                       # number of fast writes performed
system.cpu00.dcache.cache_copies                    0                       # number of cache copies performed
system.cpu00.dcache.writebacks::writebacks        12816                       # number of writebacks
system.cpu00.dcache.writebacks::total           12816                       # number of writebacks
system.cpu00.dcache.ReadReq_mshr_hits::cpu00.data         4348                       # number of ReadReq MSHR hits
system.cpu00.dcache.ReadReq_mshr_hits::total         4348                       # number of ReadReq MSHR hits
system.cpu00.dcache.WriteReq_mshr_hits::cpu00.data        29834                       # number of WriteReq MSHR hits
system.cpu00.dcache.WriteReq_mshr_hits::total        29834                       # number of WriteReq MSHR hits
system.cpu00.dcache.LoadLockedReq_mshr_hits::cpu00.data          167                       # number of LoadLockedReq MSHR hits
system.cpu00.dcache.LoadLockedReq_mshr_hits::total          167                       # number of LoadLockedReq MSHR hits
system.cpu00.dcache.demand_mshr_hits::cpu00.data        34182                       # number of demand (read+write) MSHR hits
system.cpu00.dcache.demand_mshr_hits::total        34182                       # number of demand (read+write) MSHR hits
system.cpu00.dcache.overall_mshr_hits::cpu00.data        34182                       # number of overall MSHR hits
system.cpu00.dcache.overall_mshr_hits::total        34182                       # number of overall MSHR hits
system.cpu00.dcache.ReadReq_mshr_misses::cpu00.data         9626                       # number of ReadReq MSHR misses
system.cpu00.dcache.ReadReq_mshr_misses::total         9626                       # number of ReadReq MSHR misses
system.cpu00.dcache.WriteReq_mshr_misses::cpu00.data         7748                       # number of WriteReq MSHR misses
system.cpu00.dcache.WriteReq_mshr_misses::total         7748                       # number of WriteReq MSHR misses
system.cpu00.dcache.LoadLockedReq_mshr_misses::cpu00.data          189                       # number of LoadLockedReq MSHR misses
system.cpu00.dcache.LoadLockedReq_mshr_misses::total          189                       # number of LoadLockedReq MSHR misses
system.cpu00.dcache.StoreCondReq_mshr_misses::cpu00.data            8                       # number of StoreCondReq MSHR misses
system.cpu00.dcache.StoreCondReq_mshr_misses::total            8                       # number of StoreCondReq MSHR misses
system.cpu00.dcache.demand_mshr_misses::cpu00.data        17374                       # number of demand (read+write) MSHR misses
system.cpu00.dcache.demand_mshr_misses::total        17374                       # number of demand (read+write) MSHR misses
system.cpu00.dcache.overall_mshr_misses::cpu00.data        17374                       # number of overall MSHR misses
system.cpu00.dcache.overall_mshr_misses::total        17374                       # number of overall MSHR misses
system.cpu00.dcache.ReadReq_mshr_miss_latency::cpu00.data    273511863                       # number of ReadReq MSHR miss cycles
system.cpu00.dcache.ReadReq_mshr_miss_latency::total    273511863                       # number of ReadReq MSHR miss cycles
system.cpu00.dcache.WriteReq_mshr_miss_latency::cpu00.data   1157091932                       # number of WriteReq MSHR miss cycles
system.cpu00.dcache.WriteReq_mshr_miss_latency::total   1157091932                       # number of WriteReq MSHR miss cycles
system.cpu00.dcache.LoadLockedReq_mshr_miss_latency::cpu00.data      1417581                       # number of LoadLockedReq MSHR miss cycles
system.cpu00.dcache.LoadLockedReq_mshr_miss_latency::total      1417581                       # number of LoadLockedReq MSHR miss cycles
system.cpu00.dcache.StoreCondReq_mshr_miss_latency::cpu00.data       308826                       # number of StoreCondReq MSHR miss cycles
system.cpu00.dcache.StoreCondReq_mshr_miss_latency::total       308826                       # number of StoreCondReq MSHR miss cycles
system.cpu00.dcache.demand_mshr_miss_latency::cpu00.data   1430603795                       # number of demand (read+write) MSHR miss cycles
system.cpu00.dcache.demand_mshr_miss_latency::total   1430603795                       # number of demand (read+write) MSHR miss cycles
system.cpu00.dcache.overall_mshr_miss_latency::cpu00.data   1430603795                       # number of overall MSHR miss cycles
system.cpu00.dcache.overall_mshr_miss_latency::total   1430603795                       # number of overall MSHR miss cycles
system.cpu00.dcache.ReadReq_mshr_miss_rate::cpu00.data     0.063925                       # mshr miss rate for ReadReq accesses
system.cpu00.dcache.ReadReq_mshr_miss_rate::total     0.063925                       # mshr miss rate for ReadReq accesses
system.cpu00.dcache.WriteReq_mshr_miss_rate::cpu00.data     0.065438                       # mshr miss rate for WriteReq accesses
system.cpu00.dcache.WriteReq_mshr_miss_rate::total     0.065438                       # mshr miss rate for WriteReq accesses
system.cpu00.dcache.LoadLockedReq_mshr_miss_rate::cpu00.data     0.158557                       # mshr miss rate for LoadLockedReq accesses
system.cpu00.dcache.LoadLockedReq_mshr_miss_rate::total     0.158557                       # mshr miss rate for LoadLockedReq accesses
system.cpu00.dcache.StoreCondReq_mshr_miss_rate::cpu00.data     0.007111                       # mshr miss rate for StoreCondReq accesses
system.cpu00.dcache.StoreCondReq_mshr_miss_rate::total     0.007111                       # mshr miss rate for StoreCondReq accesses
system.cpu00.dcache.demand_mshr_miss_rate::cpu00.data     0.064591                       # mshr miss rate for demand accesses
system.cpu00.dcache.demand_mshr_miss_rate::total     0.064591                       # mshr miss rate for demand accesses
system.cpu00.dcache.overall_mshr_miss_rate::cpu00.data     0.064591                       # mshr miss rate for overall accesses
system.cpu00.dcache.overall_mshr_miss_rate::total     0.064591                       # mshr miss rate for overall accesses
system.cpu00.dcache.ReadReq_avg_mshr_miss_latency::cpu00.data 28413.864845                       # average ReadReq mshr miss latency
system.cpu00.dcache.ReadReq_avg_mshr_miss_latency::total 28413.864845                       # average ReadReq mshr miss latency
system.cpu00.dcache.WriteReq_avg_mshr_miss_latency::cpu00.data 149340.724316                       # average WriteReq mshr miss latency
system.cpu00.dcache.WriteReq_avg_mshr_miss_latency::total 149340.724316                       # average WriteReq mshr miss latency
system.cpu00.dcache.LoadLockedReq_avg_mshr_miss_latency::cpu00.data  7500.428571                       # average LoadLockedReq mshr miss latency
system.cpu00.dcache.LoadLockedReq_avg_mshr_miss_latency::total  7500.428571                       # average LoadLockedReq mshr miss latency
system.cpu00.dcache.StoreCondReq_avg_mshr_miss_latency::cpu00.data 38603.250000                       # average StoreCondReq mshr miss latency
system.cpu00.dcache.StoreCondReq_avg_mshr_miss_latency::total 38603.250000                       # average StoreCondReq mshr miss latency
system.cpu00.dcache.demand_avg_mshr_miss_latency::cpu00.data 82341.648152                       # average overall mshr miss latency
system.cpu00.dcache.demand_avg_mshr_miss_latency::total 82341.648152                       # average overall mshr miss latency
system.cpu00.dcache.overall_avg_mshr_miss_latency::cpu00.data 82341.648152                       # average overall mshr miss latency
[...]
system.tol2bus.pkt_count_system.cpu06.dcache.mem_side::system.l2.cpu_side         2552                       # Packet count per connected master and slave (bytes)
system.tol2bus.pkt_count_system.cpu07.icache.mem_side::system.l2.cpu_side         2096                       # Packet count per connected master and slave (bytes)
system.tol2bus.pkt_count_system.cpu07.dcache.mem_side::system.l2.cpu_side         4015                       # Packet count per connected master and slave (bytes)
system.tol2bus.pkt_count_system.cpu08.icache.mem_side::system.l2.cpu_side         2091                       # Packet count per connected master and slave (bytes)
system.tol2bus.pkt_count_system.cpu08.dcache.mem_side::system.l2.cpu_side         3414                       # Packet count per connected master and slave (bytes)
system.tol2bus.pkt_count_system.cpu09.icache.mem_side::system.l2.cpu_side         2433                       # Packet count per connected master and slave (bytes)
system.tol2bus.pkt_count_system.cpu09.dcache.mem_side::system.l2.cpu_side         3965                       # Packet count per connected master and slave (bytes)
system.tol2bus.pkt_count_system.cpu10.icache.mem_side::system.l2.cpu_side         1221                       # Packet count per connected master and slave (bytes)
system.tol2bus.pkt_count_system.cpu10.dcache.mem_side::system.l2.cpu_side         1597                       # Packet count per connected master and slave (bytes)
system.tol2bus.pkt_count_system.cpu11.icache.mem_side::system.l2.cpu_side         1009                       # Packet count per connected master and slave (bytes)
system.tol2bus.pkt_count_system.cpu11.dcache.mem_side::system.l2.cpu_side         1590                       # Packet count per connected master and slave (bytes)
system.tol2bus.pkt_count_system.cpu12.icache.mem_side::system.l2.cpu_side         2191                       # Packet count per connected master and slave (bytes)
system.tol2bus.pkt_count_system.cpu12.dcache.mem_side::system.l2.cpu_side         3422                       # Packet count per connected master and slave (bytes)
system.tol2bus.pkt_count_system.cpu13.icache.mem_side::system.l2.cpu_side         2542                       # Packet count per connected master and slave (bytes)
system.tol2bus.pkt_count_system.cpu13.dcache.mem_side::system.l2.cpu_side         4689                       # Packet count per connected master and slave (bytes)
system.tol2bus.pkt_count_system.cpu14.icache.mem_side::system.l2.cpu_side          920                       # Packet count per connected master and slave (bytes)
system.tol2bus.pkt_count_system.cpu14.dcache.mem_side::system.l2.cpu_side         1578                       # Packet count per connected master and slave (bytes)
system.tol2bus.pkt_count_system.cpu15.icache.mem_side::system.l2.cpu_side         1699                       # Packet count per connected master and slave (bytes)
system.tol2bus.pkt_count_system.cpu15.dcache.mem_side::system.l2.cpu_side         1960                       # Packet count per connected master and slave (bytes)
system.tol2bus.pkt_count::total                147909                       # Packet count per connected master and slave (bytes)
system.tol2bus.pkt_size_system.cpu00.icache.mem_side::system.l2.cpu_side       980352                       # Cumulative packet size per connected master and slave (bytes)
system.tol2bus.pkt_size_system.cpu00.dcache.mem_side::system.l2.cpu_side      1919616                       # Cumulative packet size per connected master and slave (bytes)
system.tol2bus.pkt_size_system.cpu01.icache.mem_side::system.l2.cpu_side        98048                       # Cumulative packet size per connected master and slave (bytes)
system.tol2bus.pkt_size_system.cpu01.dcache.mem_side::system.l2.cpu_side       123968                       # Cumulative packet size per connected master and slave (bytes)
system.tol2bus.pkt_size_system.cpu02.icache.mem_side::system.l2.cpu_side       110080                       # Cumulative packet size per connected master and slave (bytes)
system.tol2bus.pkt_size_system.cpu02.dcache.mem_side::system.l2.cpu_side       125120                       # Cumulative packet size per connected master and slave (bytes)
system.tol2bus.pkt_size_system.cpu03.icache.mem_side::system.l2.cpu_side        56704                       # Cumulative packet size per connected master and slave (bytes)
system.tol2bus.pkt_size_system.cpu03.dcache.mem_side::system.l2.cpu_side        61120                       # Cumulative packet size per connected master and slave (bytes)
system.tol2bus.pkt_size_system.cpu04.icache.mem_side::system.l2.cpu_side        68928                       # Cumulative packet size per connected master and slave (bytes)
system.tol2bus.pkt_size_system.cpu04.dcache.mem_side::system.l2.cpu_side        77760                       # Cumulative packet size per connected master and slave (bytes)
system.tol2bus.pkt_size_system.cpu05.icache.mem_side::system.l2.cpu_side        39616                       # Cumulative packet size per connected master and slave (bytes)
system.tol2bus.pkt_size_system.cpu05.dcache.mem_side::system.l2.cpu_side        43968                       # Cumulative packet size per connected master and slave (bytes)
system.tol2bus.pkt_size_system.cpu06.icache.mem_side::system.l2.cpu_side        86080                       # Cumulative packet size per connected master and slave (bytes)
system.tol2bus.pkt_size_system.cpu06.dcache.mem_side::system.l2.cpu_side        81728                       # Cumulative packet size per connected master and slave (bytes)
system.tol2bus.pkt_size_system.cpu07.icache.mem_side::system.l2.cpu_side        79232                       # Cumulative packet size per connected master and slave (bytes)
system.tol2bus.pkt_size_system.cpu07.dcache.mem_side::system.l2.cpu_side       111552                       # Cumulative packet size per connected master and slave (bytes)
system.tol2bus.pkt_size_system.cpu08.icache.mem_side::system.l2.cpu_side        79040                       # Cumulative packet size per connected master and slave (bytes)
system.tol2bus.pkt_size_system.cpu08.dcache.mem_side::system.l2.cpu_side        87936                       # Cumulative packet size per connected master and slave (bytes)
system.tol2bus.pkt_size_system.cpu09.icache.mem_side::system.l2.cpu_side        93568                       # Cumulative packet size per connected master and slave (bytes)
system.tol2bus.pkt_size_system.cpu09.dcache.mem_side::system.l2.cpu_side       108992                       # Cumulative packet size per connected master and slave (bytes)
system.tol2bus.pkt_size_system.cpu10.icache.mem_side::system.l2.cpu_side        42944                       # Cumulative packet size per connected master and slave (bytes)
system.tol2bus.pkt_size_system.cpu10.dcache.mem_side::system.l2.cpu_side        53760                       # Cumulative packet size per connected master and slave (bytes)
system.tol2bus.pkt_size_system.cpu11.icache.mem_side::system.l2.cpu_side        34752                       # Cumulative packet size per connected master and slave (bytes)
system.tol2bus.pkt_size_system.cpu11.dcache.mem_side::system.l2.cpu_side        53504                       # Cumulative packet size per connected master and slave (bytes)
system.tol2bus.pkt_size_system.cpu12.icache.mem_side::system.l2.cpu_side        83328                       # Cumulative packet size per connected master and slave (bytes)
system.tol2bus.pkt_size_system.cpu12.dcache.mem_side::system.l2.cpu_side       105280                       # Cumulative packet size per connected master and slave (bytes)
system.tol2bus.pkt_size_system.cpu13.icache.mem_side::system.l2.cpu_side        98688                       # Cumulative packet size per connected master and slave (bytes)
system.tol2bus.pkt_size_system.cpu13.dcache.mem_side::system.l2.cpu_side       130432                       # Cumulative packet size per connected master and slave (bytes)
system.tol2bus.pkt_size_system.cpu14.icache.mem_side::system.l2.cpu_side        31168                       # Cumulative packet size per connected master and slave (bytes)
system.tol2bus.pkt_size_system.cpu14.dcache.mem_side::system.l2.cpu_side        55936                       # Cumulative packet size per connected master and slave (bytes)
system.tol2bus.pkt_size_system.cpu15.icache.mem_side::system.l2.cpu_side        62656                       # Cumulative packet size per connected master and slave (bytes)
system.tol2bus.pkt_size_system.cpu15.dcache.mem_side::system.l2.cpu_side        61312                       # Cumulative packet size per connected master and slave (bytes)
system.tol2bus.pkt_size::total                5247168                       # Cumulative packet size per connected master and slave (bytes)
system.tol2bus.snoops                            6282                       # Total snoops (count)
system.tol2bus.snoop_fanout::samples            55786                       # Request fanout histogram
system.tol2bus.snoop_fanout::mean            1.981053                       # Request fanout histogram
system.tol2bus.snoop_fanout::stdev           3.670274                       # Request fanout histogram
system.tol2bus.snoop_fanout::underflows             0      0.00%      0.00% # Request fanout histogram
system.tol2bus.snoop_fanout::0                  34293     61.47%     61.47% # Request fanout histogram
system.tol2bus.snoop_fanout::1                   7055     12.65%     74.12% # Request fanout histogram
system.tol2bus.snoop_fanout::2                   1990      3.57%     77.69% # Request fanout histogram
system.tol2bus.snoop_fanout::3                   1376      2.47%     80.15% # Request fanout histogram
system.tol2bus.snoop_fanout::4                   1256      2.25%     82.40% # Request fanout histogram
system.tol2bus.snoop_fanout::5                   1230      2.20%     84.61% # Request fanout histogram
system.tol2bus.snoop_fanout::6                   1203      2.16%     86.77% # Request fanout histogram
system.tol2bus.snoop_fanout::7                   1136      2.04%     88.80% # Request fanout histogram
system.tol2bus.snoop_fanout::8                   1020      1.83%     90.63% # Request fanout histogram
system.tol2bus.snoop_fanout::9                    927      1.66%     92.29% # Request fanout histogram
system.tol2bus.snoop_fanout::10                   840      1.51%     93.80% # Request fanout histogram
system.tol2bus.snoop_fanout::11                   876      1.57%     95.37% # Request fanout histogram
system.tol2bus.snoop_fanout::12                   754      1.35%     96.72% # Request fanout histogram
system.tol2bus.snoop_fanout::13                   673      1.21%     97.93% # Request fanout histogram
system.tol2bus.snoop_fanout::14                   683      1.22%     99.15% # Request fanout histogram
system.tol2bus.snoop_fanout::15                   474      0.85%    100.00% # Request fanout histogram
system.tol2bus.snoop_fanout::16                     0      0.00%    100.00% # Request fanout histogram
system.tol2bus.snoop_fanout::17                     0      0.00%    100.00% # Request fanout histogram
system.tol2bus.snoop_fanout::18                     0      0.00%    100.00% # Request fanout histogram
system.tol2bus.snoop_fanout::19                     0      0.00%    100.00% # Request fanout histogram
system.tol2bus.snoop_fanout::20                     0      0.00%    100.00% # Request fanout histogram
system.tol2bus.snoop_fanout::21                     0      0.00%    100.00% # Request fanout histogram
system.tol2bus.snoop_fanout::22                     0      0.00%    100.00% # Request fanout histogram
system.tol2bus.snoop_fanout::23                     0      0.00%    100.00% # Request fanout histogram
system.tol2bus.snoop_fanout::24                     0      0.00%    100.00% # Request fanout histogram
system.tol2bus.snoop_fanout::25                     0      0.00%    100.00% # Request fanout histogram
system.tol2bus.snoop_fanout::26                     0      0.00%    100.00% # Request fanout histogram
system.tol2bus.snoop_fanout::27                     0      0.00%    100.00% # Request fanout histogram
system.tol2bus.snoop_fanout::28                     0      0.00%    100.00% # Request fanout histogram
system.tol2bus.snoop_fanout::29                     0      0.00%    100.00% # Request fanout histogram
system.tol2bus.snoop_fanout::30                     0      0.00%    100.00% # Request fanout histogram
system.tol2bus.snoop_fanout::31                     0      0.00%    100.00% # Request fanout histogram
system.tol2bus.snoop_fanout::32                     0      0.00%    100.00% # Request fanout histogram
system.tol2bus.snoop_fanout::overflows              0      0.00%    100.00% # Request fanout histogram
system.tol2bus.snoop_fanout::min_value              0                       # Request fanout histogram
system.tol2bus.snoop_fanout::max_value             15                       # Request fanout histogram
system.tol2bus.snoop_fanout::total              55786                       # Request fanout histogram
system.tol2bus.reqLayer0.occupancy          192347696                       # Layer occupancy (ticks)
system.tol2bus.reqLayer0.utilization             15.1                       # Layer utilization (%)
system.tol2bus.respLayer0.occupancy          27913492                       # Layer occupancy (ticks)
system.tol2bus.respLayer0.utilization             2.2                       # Layer utilization (%)
system.tol2bus.respLayer1.occupancy          61350016                       # Layer occupancy (ticks)
system.tol2bus.respLayer1.utilization             4.8                       # Layer utilization (%)
system.tol2bus.respLayer2.occupancy           3572309                       # Layer occupancy (ticks)
system.tol2bus.respLayer2.utilization             0.3                       # Layer utilization (%)
system.tol2bus.respLayer3.occupancy           6114157                       # Layer occupancy (ticks)
system.tol2bus.respLayer3.utilization             0.5                       # Layer utilization (%)
system.tol2bus.respLayer4.occupancy           3913122                       # Layer occupancy (ticks)
system.tol2bus.respLayer4.utilization             0.3                       # Layer utilization (%)
system.tol2bus.respLayer5.occupancy           6348445                       # Layer occupancy (ticks)
system.tol2bus.respLayer5.utilization             0.5                       # Layer utilization (%)
system.tol2bus.respLayer6.occupancy           2433397                       # Layer occupancy (ticks)
system.tol2bus.respLayer6.utilization             0.2                       # Layer utilization (%)
system.tol2bus.respLayer7.occupancy           3063761                       # Layer occupancy (ticks)
system.tol2bus.respLayer7.utilization             0.2                       # Layer utilization (%)
system.tol2bus.respLayer8.occupancy           2744357                       # Layer occupancy (ticks)
system.tol2bus.respLayer8.utilization             0.2                       # Layer utilization (%)
system.tol2bus.respLayer9.occupancy           4009977                       # Layer occupancy (ticks)
system.tol2bus.respLayer9.utilization             0.3                       # Layer utilization (%)
system.tol2bus.respLayer10.occupancy          1849177                       # Layer occupancy (ticks)
system.tol2bus.respLayer10.utilization            0.1                       # Layer utilization (%)
system.tol2bus.respLayer11.occupancy          2075803                       # Layer occupancy (ticks)
system.tol2bus.respLayer11.utilization            0.2                       # Layer utilization (%)
system.tol2bus.respLayer12.occupancy          3284620                       # Layer occupancy (ticks)
system.tol2bus.respLayer12.utilization            0.3                       # Layer utilization (%)
system.tol2bus.respLayer13.occupancy          3463142                       # Layer occupancy (ticks)
system.tol2bus.respLayer13.utilization            0.3                       # Layer utilization (%)
system.tol2bus.respLayer14.occupancy          3040494                       # Layer occupancy (ticks)
system.tol2bus.respLayer14.utilization            0.2                       # Layer utilization (%)
system.tol2bus.respLayer15.occupancy          5731887                       # Layer occupancy (ticks)
system.tol2bus.respLayer15.utilization            0.4                       # Layer utilization (%)
system.tol2bus.respLayer16.occupancy          3056675                       # Layer occupancy (ticks)
system.tol2bus.respLayer16.utilization            0.2                       # Layer utilization (%)
system.tol2bus.respLayer17.occupancy          4909731                       # Layer occupancy (ticks)
system.tol2bus.respLayer17.utilization            0.4                       # Layer utilization (%)
system.tol2bus.respLayer18.occupancy          3450260                       # Layer occupancy (ticks)
system.tol2bus.respLayer18.utilization            0.3                       # Layer utilization (%)
system.tol2bus.respLayer19.occupancy          5815337                       # Layer occupancy (ticks)
system.tol2bus.respLayer19.utilization            0.5                       # Layer utilization (%)
system.tol2bus.respLayer20.occupancy          1981604                       # Layer occupancy (ticks)
system.tol2bus.respLayer20.utilization            0.2                       # Layer utilization (%)
system.tol2bus.respLayer21.occupancy          2113112                       # Layer occupancy (ticks)
system.tol2bus.respLayer21.utilization            0.2                       # Layer utilization (%)
system.tol2bus.respLayer22.occupancy          1675748                       # Layer occupancy (ticks)
system.tol2bus.respLayer22.utilization            0.1                       # Layer utilization (%)
system.tol2bus.respLayer23.occupancy          2152931                       # Layer occupancy (ticks)
system.tol2bus.respLayer23.utilization            0.2                       # Layer utilization (%)
system.tol2bus.respLayer24.occupancy          3187229                       # Layer occupancy (ticks)
system.tol2bus.respLayer24.utilization            0.2                       # Layer utilization (%)
system.tol2bus.respLayer25.occupancy          4718150                       # Layer occupancy (ticks)
system.tol2bus.respLayer25.utilization            0.4                       # Layer utilization (%)
system.tol2bus.respLayer26.occupancy          3575413                       # Layer occupancy (ticks)
system.tol2bus.respLayer26.utilization            0.3                       # Layer utilization (%)
system.tol2bus.respLayer27.occupancy          6689553                       # Layer occupancy (ticks)
system.tol2bus.respLayer27.utilization            0.5                       # Layer utilization (%)
system.tol2bus.respLayer28.occupancy          1571246                       # Layer occupancy (ticks)
system.tol2bus.respLayer28.utilization            0.1                       # Layer utilization (%)
system.tol2bus.respLayer29.occupancy          2056081                       # Layer occupancy (ticks)
system.tol2bus.respLayer29.utilization            0.2                       # Layer utilization (%)
system.tol2bus.respLayer30.occupancy          2564222                       # Layer occupancy (ticks)
system.tol2bus.respLayer30.utilization            0.2                       # Layer utilization (%)
system.tol2bus.respLayer31.occupancy          2674479                       # Layer occupancy (ticks)
system.tol2bus.respLayer31.utilization            0.2                       # Layer utilization (%)

---------- End Simulation Statistics   ----------
