
---------- Begin Simulation Statistics ----------
sim_seconds                                  0.010280                       # Number of seconds simulated
sim_ticks                                 10279610100                       # Number of ticks simulated
final_tick                                10279610100                       # Number of ticks from beginning of simulation (restored from checkpoints and never reset)
sim_freq                                 1000000000000                       # Frequency of simulated ticks
host_inst_rate                                  89013                       # Simulator instruction rate (inst/s)
host_op_rate                                    89013                       # Simulator op (including micro ops) rate (op/s)
host_tick_rate                               14293449                       # Simulator tick rate (ticks/s)
host_mem_usage                                 692752                       # Number of bytes of host memory used
host_seconds                                   719.18                       # Real time elapsed on the host
sim_insts                                    64016505                       # Number of instructions simulated
sim_ops                                      64016505                       # Number of ops (including micro ops) simulated
system.voltage_domain.voltage                       1                       # Voltage in Volts
system.clk_domain.clock                          1000                       # Clock period in ticks
system.mem_ctrls.bytes_read::cpu00.inst        128704                       # Number of bytes read from this memory
system.mem_ctrls.bytes_read::cpu00.data        875072                       # Number of bytes read from this memory
system.mem_ctrls.bytes_read::cpu01.inst         12608                       # Number of bytes read from this memory
system.mem_ctrls.bytes_read::cpu01.data        612416                       # Number of bytes read from this memory
system.mem_ctrls.bytes_read::cpu02.inst          1408                       # Number of bytes read from this memory
system.mem_ctrls.bytes_read::cpu02.data        531904                       # Number of bytes read from this memory
system.mem_ctrls.bytes_read::cpu03.inst           256                       # Number of bytes read from this memory
system.mem_ctrls.bytes_read::cpu03.data        523008                       # Number of bytes read from this memory
system.mem_ctrls.bytes_read::cpu04.inst           448                       # Number of bytes read from this memory
system.mem_ctrls.bytes_read::cpu04.data        554048                       # Number of bytes read from this memory
system.mem_ctrls.bytes_read::cpu05.inst           256                       # Number of bytes read from this memory
system.mem_ctrls.bytes_read::cpu05.data        517952                       # Number of bytes read from this memory
system.mem_ctrls.bytes_read::cpu06.inst           192                       # Number of bytes read from this memory
system.mem_ctrls.bytes_read::cpu06.data        526400                       # Number of bytes read from this memory
system.mem_ctrls.bytes_read::cpu07.inst           128                       # Number of bytes read from this memory
system.mem_ctrls.bytes_read::cpu07.data        560448                       # Number of bytes read from this memory
system.mem_ctrls.bytes_read::cpu08.inst            64                       # Number of bytes read from this memory
system.mem_ctrls.bytes_read::cpu08.data        563968                       # Number of bytes read from this memory
system.mem_ctrls.bytes_read::cpu09.data        517568                       # Number of bytes read from this memory
system.mem_ctrls.bytes_read::cpu10.inst            64                       # Number of bytes read from this memory
system.mem_ctrls.bytes_read::cpu10.data        527616                       # Number of bytes read from this memory
system.mem_ctrls.bytes_read::cpu11.data        531776                       # Number of bytes read from this memory
system.mem_ctrls.bytes_read::cpu12.inst          1280                       # Number of bytes read from this memory
system.mem_ctrls.bytes_read::cpu12.data        571584                       # Number of bytes read from this memory
system.mem_ctrls.bytes_read::cpu13.inst           128                       # Number of bytes read from this memory
system.mem_ctrls.bytes_read::cpu13.data        518144                       # Number of bytes read from this memory
system.mem_ctrls.bytes_read::cpu14.inst           128                       # Number of bytes read from this memory
system.mem_ctrls.bytes_read::cpu14.data        527936                       # Number of bytes read from this memory
system.mem_ctrls.bytes_read::cpu15.inst           704                       # Number of bytes read from this memory
system.mem_ctrls.bytes_read::cpu15.data        548544                       # Number of bytes read from this memory
system.mem_ctrls.bytes_read::total            9154752                       # Number of bytes read from this memory
system.mem_ctrls.bytes_inst_read::cpu00.inst       128704                       # Number of instructions bytes read from this memory
system.mem_ctrls.bytes_inst_read::cpu01.inst        12608                       # Number of instructions bytes read from this memory
system.mem_ctrls.bytes_inst_read::cpu02.inst         1408                       # Number of instructions bytes read from this memory
system.mem_ctrls.bytes_inst_read::cpu03.inst          256                       # Number of instructions bytes read from this memory
system.mem_ctrls.bytes_inst_read::cpu04.inst          448                       # Number of instructions bytes read from this memory
system.mem_ctrls.bytes_inst_read::cpu05.inst          256                       # Number of instructions bytes read from this memory
system.mem_ctrls.bytes_inst_read::cpu06.inst          192                       # Number of instructions bytes read from this memory
system.mem_ctrls.bytes_inst_read::cpu07.inst          128                       # Number of instructions bytes read from this memory
system.mem_ctrls.bytes_inst_read::cpu08.inst           64                       # Number of instructions bytes read from this memory
system.mem_ctrls.bytes_inst_read::cpu10.inst           64                       # Number of instructions bytes read from this memory
system.mem_ctrls.bytes_inst_read::cpu12.inst         1280                       # Number of instructions bytes read from this memory
system.mem_ctrls.bytes_inst_read::cpu13.inst          128                       # Number of instructions bytes read from this memory
system.mem_ctrls.bytes_inst_read::cpu14.inst          128                       # Number of instructions bytes read from this memory
system.mem_ctrls.bytes_inst_read::cpu15.inst          704                       # Number of instructions bytes read from this memory
system.mem_ctrls.bytes_inst_read::total        146368                       # Number of instructions bytes read from this memory
system.mem_ctrls.bytes_written::writebacks      5621632                       # Number of bytes written to this memory
system.mem_ctrls.bytes_written::total         5621632                       # Number of bytes written to this memory
system.mem_ctrls.num_reads::cpu00.inst           2011                       # Number of read requests responded to by this memory
system.mem_ctrls.num_reads::cpu00.data          13673                       # Number of read requests responded to by this memory
system.mem_ctrls.num_reads::cpu01.inst            197                       # Number of read requests responded to by this memory
system.mem_ctrls.num_reads::cpu01.data           9569                       # Number of read requests responded to by this memory
system.mem_ctrls.num_reads::cpu02.inst             22                       # Number of read requests responded to by this memory
system.mem_ctrls.num_reads::cpu02.data           8311                       # Number of read requests responded to by this memory
system.mem_ctrls.num_reads::cpu03.inst              4                       # Number of read requests responded to by this memory
system.mem_ctrls.num_reads::cpu03.data           8172                       # Number of read requests responded to by this memory
system.mem_ctrls.num_reads::cpu04.inst              7                       # Number of read requests responded to by this memory
system.mem_ctrls.num_reads::cpu04.data           8657                       # Number of read requests responded to by this memory
system.mem_ctrls.num_reads::cpu05.inst              4                       # Number of read requests responded to by this memory
system.mem_ctrls.num_reads::cpu05.data           8093                       # Number of read requests responded to by this memory
system.mem_ctrls.num_reads::cpu06.inst              3                       # Number of read requests responded to by this memory
system.mem_ctrls.num_reads::cpu06.data           8225                       # Number of read requests responded to by this memory
system.mem_ctrls.num_reads::cpu07.inst              2                       # Number of read requests responded to by this memory
system.mem_ctrls.num_reads::cpu07.data           8757                       # Number of read requests responded to by this memory
system.mem_ctrls.num_reads::cpu08.inst              1                       # Number of read requests responded to by this memory
system.mem_ctrls.num_reads::cpu08.data           8812                       # Number of read requests responded to by this memory
system.mem_ctrls.num_reads::cpu09.data           8087                       # Number of read requests responded to by this memory
system.mem_ctrls.num_reads::cpu10.inst              1                       # Number of read requests responded to by this memory
system.mem_ctrls.num_reads::cpu10.data           8244                       # Number of read requests responded to by this memory
system.mem_ctrls.num_reads::cpu11.data           8309                       # Number of read requests responded to by this memory
system.mem_ctrls.num_reads::cpu12.inst             20                       # Number of read requests responded to by this memory
system.mem_ctrls.num_reads::cpu12.data           8931                       # Number of read requests responded to by this memory
system.mem_ctrls.num_reads::cpu13.inst              2                       # Number of read requests responded to by this memory
system.mem_ctrls.num_reads::cpu13.data           8096                       # Number of read requests responded to by this memory
system.mem_ctrls.num_reads::cpu14.inst              2                       # Number of read requests responded to by this memory
system.mem_ctrls.num_reads::cpu14.data           8249                       # Number of read requests responded to by this memory
system.mem_ctrls.num_reads::cpu15.inst             11                       # Number of read requests responded to by this memory
system.mem_ctrls.num_reads::cpu15.data           8571                       # Number of read requests responded to by this memory
system.mem_ctrls.num_reads::total              143043                       # Number of read requests responded to by this memory
system.mem_ctrls.num_writes::writebacks         87838                       # Number of write requests responded to by this memory
system.mem_ctrls.num_writes::total              87838                       # Number of write requests responded to by this memory
system.mem_ctrls.bw_read::cpu00.inst         12520319                       # Total read bandwidth from this memory (bytes/s)
system.mem_ctrls.bw_read::cpu00.data         85126964                       # Total read bandwidth from this memory (bytes/s)
system.mem_ctrls.bw_read::cpu01.inst          1226506                       # Total read bandwidth from this memory (bytes/s)
system.mem_ctrls.bw_read::cpu01.data         59575800                       # Total read bandwidth from this memory (bytes/s)
system.mem_ctrls.bw_read::cpu02.inst           136970                       # Total read bandwidth from this memory (bytes/s)
system.mem_ctrls.bw_read::cpu02.data         51743597                       # Total read bandwidth from this memory (bytes/s)
system.mem_ctrls.bw_read::cpu03.inst            24904                       # Total read bandwidth from this memory (bytes/s)
system.mem_ctrls.bw_read::cpu03.data         50878194                       # Total read bandwidth from this memory (bytes/s)
system.mem_ctrls.bw_read::cpu04.inst            43581                       # Total read bandwidth from this memory (bytes/s)
system.mem_ctrls.bw_read::cpu04.data         53897764                       # Total read bandwidth from this memory (bytes/s)
system.mem_ctrls.bw_read::cpu05.inst            24904                       # Total read bandwidth from this memory (bytes/s)
system.mem_ctrls.bw_read::cpu05.data         50386347                       # Total read bandwidth from this memory (bytes/s)
system.mem_ctrls.bw_read::cpu06.inst            18678                       # Total read bandwidth from this memory (bytes/s)
system.mem_ctrls.bw_read::cpu06.data         51208168                       # Total read bandwidth from this memory (bytes/s)
system.mem_ctrls.bw_read::cpu07.inst            12452                       # Total read bandwidth from this memory (bytes/s)
system.mem_ctrls.bw_read::cpu07.data         54520356                       # Total read bandwidth from this memory (bytes/s)
system.mem_ctrls.bw_read::cpu08.inst             6226                       # Total read bandwidth from this memory (bytes/s)
system.mem_ctrls.bw_read::cpu08.data         54862781                       # Total read bandwidth from this memory (bytes/s)
system.mem_ctrls.bw_read::cpu09.data         50348991                       # Total read bandwidth from this memory (bytes/s)
system.mem_ctrls.bw_read::cpu10.inst             6226                       # Total read bandwidth from this memory (bytes/s)
system.mem_ctrls.bw_read::cpu10.data         51326460                       # Total read bandwidth from this memory (bytes/s)
system.mem_ctrls.bw_read::cpu11.data         51731145                       # Total read bandwidth from this memory (bytes/s)
system.mem_ctrls.bw_read::cpu12.inst           124518                       # Total read bandwidth from this memory (bytes/s)
system.mem_ctrls.bw_read::cpu12.data         55603665                       # Total read bandwidth from this memory (bytes/s)
system.mem_ctrls.bw_read::cpu13.inst            12452                       # Total read bandwidth from this memory (bytes/s)
system.mem_ctrls.bw_read::cpu13.data         50405025                       # Total read bandwidth from this memory (bytes/s)
system.mem_ctrls.bw_read::cpu14.inst            12452                       # Total read bandwidth from this memory (bytes/s)
system.mem_ctrls.bw_read::cpu14.data         51357590                       # Total read bandwidth from this memory (bytes/s)
system.mem_ctrls.bw_read::cpu15.inst            68485                       # Total read bandwidth from this memory (bytes/s)
system.mem_ctrls.bw_read::cpu15.data         53362335                       # Total read bandwidth from this memory (bytes/s)
system.mem_ctrls.bw_read::total             890573856                       # Total read bandwidth from this memory (bytes/s)
system.mem_ctrls.bw_inst_read::cpu00.inst     12520319                       # Instruction read bandwidth from this memory (bytes/s)
system.mem_ctrls.bw_inst_read::cpu01.inst      1226506                       # Instruction read bandwidth from this memory (bytes/s)
system.mem_ctrls.bw_inst_read::cpu02.inst       136970                       # Instruction read bandwidth from this memory (bytes/s)
system.mem_ctrls.bw_inst_read::cpu03.inst        24904                       # Instruction read bandwidth from this memory (bytes/s)
system.mem_ctrls.bw_inst_read::cpu04.inst        43581                       # Instruction read bandwidth from this memory (bytes/s)
system.mem_ctrls.bw_inst_read::cpu05.inst        24904                       # Instruction read bandwidth from this memory (bytes/s)
system.mem_ctrls.bw_inst_read::cpu06.inst        18678                       # Instruction read bandwidth from this memory (bytes/s)
system.mem_ctrls.bw_inst_read::cpu07.inst        12452                       # Instruction read bandwidth from this memory (bytes/s)
system.mem_ctrls.bw_inst_read::cpu08.inst         6226                       # Instruction read bandwidth from this memory (bytes/s)
system.mem_ctrls.bw_inst_read::cpu10.inst         6226                       # Instruction read bandwidth from this memory (bytes/s)
system.mem_ctrls.bw_inst_read::cpu12.inst       124518                       # Instruction read bandwidth from this memory (bytes/s)
system.mem_ctrls.bw_inst_read::cpu13.inst        12452                       # Instruction read bandwidth from this memory (bytes/s)
system.mem_ctrls.bw_inst_read::cpu14.inst        12452                       # Instruction read bandwidth from this memory (bytes/s)
system.mem_ctrls.bw_inst_read::cpu15.inst        68485                       # Instruction read bandwidth from this memory (bytes/s)
system.mem_ctrls.bw_inst_read::total         14238672                       # Instruction read bandwidth from this memory (bytes/s)
system.mem_ctrls.bw_write::writebacks       546872104                       # Write bandwidth from this memory (bytes/s)
system.mem_ctrls.bw_write::total            546872104                       # Write bandwidth from this memory (bytes/s)
system.mem_ctrls.bw_total::writebacks       546872104                       # Total bandwidth to/from this memory (bytes/s)
system.mem_ctrls.bw_total::cpu00.inst        12520319                       # Total bandwidth to/from this memory (bytes/s)
system.mem_ctrls.bw_total::cpu00.data        85126964                       # Total bandwidth to/from this memory (bytes/s)
system.mem_ctrls.bw_total::cpu01.inst         1226506                       # Total bandwidth to/from this memory (bytes/s)
system.mem_ctrls.bw_total::cpu01.data        59575800                       # Total bandwidth to/from this memory (bytes/s)
system.mem_ctrls.bw_total::cpu02.inst          136970                       # Total bandwidth to/from this memory (bytes/s)
system.mem_ctrls.bw_total::cpu02.data        51743597                       # Total bandwidth to/from this memory (bytes/s)
system.mem_ctrls.bw_total::cpu03.inst           24904                       # Total bandwidth to/from this memory (bytes/s)
system.mem_ctrls.bw_total::cpu03.data        50878194                       # Total bandwidth to/from this memory (bytes/s)
system.mem_ctrls.bw_total::cpu04.inst           43581                       # Total bandwidth to/from this memory (bytes/s)
system.mem_ctrls.bw_total::cpu04.data        53897764                       # Total bandwidth to/from this memory (bytes/s)
system.mem_ctrls.bw_total::cpu05.inst           24904                       # Total bandwidth to/from this memory (bytes/s)
system.mem_ctrls.bw_total::cpu05.data        50386347                       # Total bandwidth to/from this memory (bytes/s)
system.mem_ctrls.bw_total::cpu06.inst           18678                       # Total bandwidth to/from this memory (bytes/s)
system.mem_ctrls.bw_total::cpu06.data        51208168                       # Total bandwidth to/from this memory (bytes/s)
system.mem_ctrls.bw_total::cpu07.inst           12452                       # Total bandwidth to/from this memory (bytes/s)
system.mem_ctrls.bw_total::cpu07.data        54520356                       # Total bandwidth to/from this memory (bytes/s)
system.mem_ctrls.bw_total::cpu08.inst            6226                       # Total bandwidth to/from this memory (bytes/s)
system.mem_ctrls.bw_total::cpu08.data        54862781                       # Total bandwidth to/from this memory (bytes/s)
system.mem_ctrls.bw_total::cpu09.data        50348991                       # Total bandwidth to/from this memory (bytes/s)
system.mem_ctrls.bw_total::cpu10.inst            6226                       # Total bandwidth to/from this memory (bytes/s)
system.mem_ctrls.bw_total::cpu10.data        51326460                       # Total bandwidth to/from this memory (bytes/s)
system.mem_ctrls.bw_total::cpu11.data        51731145                       # Total bandwidth to/from this memory (bytes/s)
system.mem_ctrls.bw_total::cpu12.inst          124518                       # Total bandwidth to/from this memory (bytes/s)
system.mem_ctrls.bw_total::cpu12.data        55603665                       # Total bandwidth to/from this memory (bytes/s)
system.mem_ctrls.bw_total::cpu13.inst           12452                       # Total bandwidth to/from this memory (bytes/s)
system.mem_ctrls.bw_total::cpu13.data        50405025                       # Total bandwidth to/from this memory (bytes/s)
system.mem_ctrls.bw_total::cpu14.inst           12452                       # Total bandwidth to/from this memory (bytes/s)
system.mem_ctrls.bw_total::cpu14.data        51357590                       # Total bandwidth to/from this memory (bytes/s)
system.mem_ctrls.bw_total::cpu15.inst           68485                       # Total bandwidth to/from this memory (bytes/s)
system.mem_ctrls.bw_total::cpu15.data        53362335                       # Total bandwidth to/from this memory (bytes/s)
system.mem_ctrls.bw_total::total           1437445959                       # Total bandwidth to/from this memory (bytes/s)
system.cpu00.branchPred.lookups                332848                       # Number of BP lookups
system.cpu00.branchPred.condPredicted          167587                       # Number of conditional branches predicted
system.cpu00.branchPred.condIncorrect            5336                       # Number of conditional branches incorrect
system.cpu00.branchPred.BTBLookups             233794                       # Number of BTB lookups
system.cpu00.branchPred.BTBHits                210837                       # Number of BTB hits
system.cpu00.branchPred.BTBCorrect                  0                       # Number of correct BTB predictions (this stat may not work properly.
system.cpu00.branchPred.BTBHitPct           90.180672                       # BTB Hit Percentage
system.cpu00.branchPred.usedRAS                 79723                       # Number of times the RAS was used to get a target.
system.cpu00.branchPred.RASInCorrect               86                       # Number of incorrect RAS predictions.
system.cpu00.branchPred.indirectLookups          1702                       # Number of indirect predictor lookups.
system.cpu00.branchPred.indirectHits              991                       # Number of indirect target hits.
system.cpu00.branchPred.indirectMisses            711                       # Number of indirect misses.
system.cpu00.branchPredindirectMispredicted          232                       # Number of mispredicted indirect branches.
system.cpu_voltage_domain.voltage                   1                       # Voltage in Volts
system.cpu_clk_domain.clock                      1161                       # Clock period in ticks
system.cpu00.dtb.fetch_hits                         0                       # ITB hits
system.cpu00.dtb.fetch_misses                       0                       # ITB misses
system.cpu00.dtb.fetch_acv                          0                       # ITB acv
system.cpu00.dtb.fetch_accesses                     0                       # ITB accesses
system.cpu00.dtb.read_hits                    1175854                       # DTB read hits
system.cpu00.dtb.read_misses                     7888                       # DTB read misses
system.cpu00.dtb.read_acv                           2                       # DTB read access violations
system.cpu00.dtb.read_accesses                1183742                       # DTB read accesses
system.cpu00.dtb.write_hits                    353213                       # DTB write hits
system.cpu00.dtb.write_misses                   59162                       # DTB write misses
system.cpu00.dtb.write_acv                          0                       # DTB write access violations
system.cpu00.dtb.write_accesses                412375                       # DTB write accesses
system.cpu00.dtb.data_hits                    1529067                       # DTB hits
system.cpu00.dtb.data_misses                    67050                       # DTB misses
system.cpu00.dtb.data_acv                           2                       # DTB access violations
system.cpu00.dtb.data_accesses                1596117                       # DTB accesses
system.cpu00.itb.fetch_hits                    767543                       # ITB hits
system.cpu00.itb.fetch_misses                     160                       # ITB misses
system.cpu00.itb.fetch_acv                          0                       # ITB acv
system.cpu00.itb.fetch_accesses                767703                       # ITB accesses
system.cpu00.itb.read_hits                          0                       # DTB read hits
system.cpu00.itb.read_misses                        0                       # DTB read misses
system.cpu00.itb.read_acv                           0                       # DTB read access violations
system.cpu00.itb.read_accesses                      0                       # DTB read accesses
system.cpu00.itb.write_hits                         0                       # DTB write hits
system.cpu00.itb.write_misses                       0                       # DTB write misses
system.cpu00.itb.write_acv                          0                       # DTB write access violations
system.cpu00.itb.write_accesses                     0                       # DTB write accesses
system.cpu00.itb.data_hits                          0                       # DTB hits
system.cpu00.itb.data_misses                        0                       # DTB misses
system.cpu00.itb.data_acv                           0                       # DTB access violations
system.cpu00.itb.data_accesses                      0                       # DTB accesses
system.cpu00.workload.num_syscalls               1703                       # Number of system calls
system.cpu00.numCycles                        8527724                       # number of cpu cycles simulated
system.cpu00.numWorkItemsStarted                    0                       # number of work items this cpu started
system.cpu00.numWorkItemsCompleted                  0                       # number of work items this cpu completed
system.cpu00.fetch.icacheStallCycles            96329                       # Number of cycles fetch is stalled on an Icache miss
system.cpu00.fetch.Insts                      7376472                       # Number of instructions fetch has processed
system.cpu00.fetch.Branches                    332848                       # Number of branches that fetch encountered
system.cpu00.fetch.predictedBranches           291551                       # Number of branches that fetch has predicted taken
system.cpu00.fetch.Cycles                     8182987                       # Number of cycles fetch has run and was not squashing or blocked
system.cpu00.fetch.SquashCycles                 48518                       # Number of cycles fetch has spent squashing
system.cpu00.fetch.MiscStallCycles                114                       # Number of cycles fetch has spent waiting on interrupts, or bad addresses, or out of MSHRs
system.cpu00.fetch.PendingTrapStallCycles         7034                       # Number of stall cycles due to pending traps
system.cpu00.fetch.IcacheWaitRetryStallCycles           70                       # Number of stall cycles due to full MSHR
system.cpu00.fetch.CacheLines                  767543                       # Number of cache lines fetched
system.cpu00.fetch.IcacheSquashes                2619                       # Number of outstanding Icache misses that were squashed
system.cpu00.fetch.rateDist::samples          8310793                       # Number of instructions fetched each cycle (Total)
system.cpu00.fetch.rateDist::mean            0.887577                       # Number of instructions fetched each cycle (Total)
system.cpu00.fetch.rateDist::stdev           2.246345                       # Number of instructions fetched each cycle (Total)
system.cpu00.fetch.rateDist::underflows             0      0.00%      0.00% # Number of instructions fetched each cycle (Total)
system.cpu00.fetch.rateDist::0                6958903     83.73%     83.73% # Number of instructions fetched each cycle (Total)
system.cpu00.fetch.rateDist::1                  35377      0.43%     84.16% # Number of instructions fetched each cycle (Total)
system.cpu00.fetch.rateDist::2                 258596      3.11%     87.27% # Number of instructions fetched each cycle (Total)
system.cpu00.fetch.rateDist::3                  29320      0.35%     87.62% # Number of instructions fetched each cycle (Total)
system.cpu00.fetch.rateDist::4                 269943      3.25%     90.87% # Number of instructions fetched each cycle (Total)
system.cpu00.fetch.rateDist::5                  49136      0.59%     91.46% # Number of instructions fetched each cycle (Total)
system.cpu00.fetch.rateDist::6                  89250      1.07%     92.54% # Number of instructions fetched each cycle (Total)
system.cpu00.fetch.rateDist::7                  87153      1.05%     93.59% # Number of instructions fetched each cycle (Total)
system.cpu00.fetch.rateDist::8                 533115      6.41%    100.00% # Number of instructions fetched each cycle (Total)
system.cpu00.fetch.rateDist::overflows              0      0.00%    100.00% # Number of instructions fetched each cycle (Total)
system.cpu00.fetch.rateDist::min_value              0                       # Number of instructions fetched each cycle (Total)
system.cpu00.fetch.rateDist::max_value              8                       # Number of instructions fetched each cycle (Total)
system.cpu00.fetch.rateDist::total            8310793                       # Number of instructions fetched each cycle (Total)
system.cpu00.fetch.branchRate                0.039031                       # Number of branch fetches per cycle
system.cpu00.fetch.rate                      0.864999                       # Number of inst fetches per cycle
system.cpu00.decode.IdleCycles                 263154                       # Number of cycles decode is idle
system.cpu00.decode.BlockedCycles             7183442                       # Number of cycles decode is blocked
system.cpu00.decode.RunCycles                  334180                       # Number of cycles decode is running
system.cpu00.decode.UnblockCycles              507399                       # Number of cycles decode is unblocking
system.cpu00.decode.SquashCycles                22618                       # Number of cycles decode is squashing
system.cpu00.decode.BranchResolved              81605                       # Number of times decode resolved a branch
system.cpu00.decode.BranchMispred                1681                       # Number of times decode detected a branch misprediction
system.cpu00.decode.DecodedInsts              6493249                       # Number of instructions handled by decode
system.cpu00.decode.SquashedInsts                6963                       # Number of squashed instructions handled by decode
system.cpu00.rename.SquashCycles                22618                       # Number of cycles rename is squashing
system.cpu00.rename.IdleCycles                 385673                       # Number of cycles rename is idle
system.cpu00.rename.BlockCycles               3108740                       # Number of cycles rename is blocking
system.cpu00.rename.serializeStallCycles        95633                       # count of cycles rename stalled for serializing inst
system.cpu00.rename.RunCycles                  641063                       # Number of cycles rename is running
system.cpu00.rename.UnblockCycles             4057066                       # Number of cycles rename is unblocking
system.cpu00.rename.RenamedInsts              6326797                       # Number of instructions processed by rename
system.cpu00.rename.ROBFullEvents                2850                       # Number of times rename has blocked due to ROB full
system.cpu00.rename.IQFullEvents              2089310                       # Number of times rename has blocked due to IQ full
system.cpu00.rename.LQFullEvents              1655404                       # Number of times rename has blocked due to LQ full
system.cpu00.rename.SQFullEvents               277920                       # Number of times rename has blocked due to SQ full
system.cpu00.rename.RenamedOperands           5427844                       # Number of destination operands rename has renamed
system.cpu00.rename.RenameLookups             9150981                       # Number of register rename lookups that rename has made
system.cpu00.rename.int_rename_lookups        5132737                       # Number of integer rename lookups
system.cpu00.rename.fp_rename_lookups         4017992                       # Number of floating rename lookups
system.cpu00.rename.CommittedMaps             3930803                       # Number of HB maps that are committed
system.cpu00.rename.UndoneMaps                1497041                       # Number of HB maps that are undone due to squashing
system.cpu00.rename.serializingInsts             2310                       # count of serializing insts renamed
system.cpu00.rename.tempSerializingInsts         1968                       # count of temporary serializing insts renamed
system.cpu00.rename.skidInsts                 3385235                       # count of insts added to the skid buffer
system.cpu00.memDep0.insertedLoads            1198173                       # Number of loads inserted to the mem dependence unit.
system.cpu00.memDep0.insertedStores            532706                       # Number of stores inserted to the mem dependence unit.
system.cpu00.memDep0.conflictingLoads          371616                       # Number of conflicting loads.
system.cpu00.memDep0.conflictingStores         194862                       # Number of conflicting stores.
system.cpu00.iq.iqInstsAdded                  6223450                       # Number of instructions added to the IQ (excludes non-spec)
system.cpu00.iq.iqNonSpecInstsAdded              3199                       # Number of non-speculative instructions added to the IQ
system.cpu00.iq.iqInstsIssued                 5922591                       # Number of instructions issued
system.cpu00.iq.iqSquashedInstsIssued            6640                       # Number of squashed instructions issued
system.cpu00.iq.iqSquashedInstsExamined       1881211                       # Number of squashed instructions iterated over during squash; mainly for profiling
system.cpu00.iq.iqSquashedOperandsExamined       784820                       # Number of squashed operands that are examined and possibly removed from graph
system.cpu00.iq.iqSquashedNonSpecRemoved          495                       # Number of squashed non-spec instructions that were removed
system.cpu00.iq.issued_per_cycle::samples      8310793                       # Number of insts issued each cycle
system.cpu00.iq.issued_per_cycle::mean       0.712638                       # Number of insts issued each cycle
system.cpu00.iq.issued_per_cycle::stdev      1.205566                       # Number of insts issued each cycle
system.cpu00.iq.issued_per_cycle::underflows            0      0.00%      0.00% # Number of insts issued each cycle
system.cpu00.iq.issued_per_cycle::0           4836383     58.19%     58.19% # Number of insts issued each cycle
system.cpu00.iq.issued_per_cycle::1           2248069     27.05%     85.24% # Number of insts issued each cycle
system.cpu00.iq.issued_per_cycle::2            713800      8.59%     93.83% # Number of insts issued each cycle
system.cpu00.iq.issued_per_cycle::3            217025      2.61%     96.44% # Number of insts issued each cycle
system.cpu00.iq.issued_per_cycle::4            114663      1.38%     97.82% # Number of insts issued each cycle
system.cpu00.iq.issued_per_cycle::5             65112      0.78%     98.61% # Number of insts issued each cycle
system.cpu00.iq.issued_per_cycle::6             43774      0.53%     99.13% # Number of insts issued each cycle
system.cpu00.iq.issued_per_cycle::7             26745      0.32%     99.46% # Number of insts issued each cycle
system.cpu00.iq.issued_per_cycle::8             45222      0.54%    100.00% # Number of insts issued each cycle
system.cpu00.iq.issued_per_cycle::overflows            0      0.00%    100.00% # Number of insts issued each cycle
system.cpu00.iq.issued_per_cycle::min_value            0                       # Number of insts issued each cycle
system.cpu00.iq.issued_per_cycle::max_value            8                       # Number of insts issued each cycle
system.cpu00.iq.issued_per_cycle::total       8310793                       # Number of insts issued each cycle
system.cpu00.iq.fu_full::No_OpClass                 0      0.00%      0.00% # attempts to use FU when none available
system.cpu00.iq.fu_full::IntAlu                  4603     10.37%     10.37% # attempts to use FU when none available
system.cpu00.iq.fu_full::IntMult                    0      0.00%     10.37% # attempts to use FU when none available
system.cpu00.iq.fu_full::IntDiv                     0      0.00%     10.37% # attempts to use FU when none available
system.cpu00.iq.fu_full::FloatAdd                   0      0.00%     10.37% # attempts to use FU when none available
system.cpu00.iq.fu_full::FloatCmp                   0      0.00%     10.37% # attempts to use FU when none available
system.cpu00.iq.fu_full::FloatCvt                   0      0.00%     10.37% # attempts to use FU when none available
system.cpu00.iq.fu_full::FloatMult               8237     18.55%     28.92% # attempts to use FU when none available
system.cpu00.iq.fu_full::FloatDiv                   0      0.00%     28.92% # attempts to use FU when none available
system.cpu00.iq.fu_full::FloatSqrt                  0      0.00%     28.92% # attempts to use FU when none available
system.cpu00.iq.fu_full::SimdAdd                    0      0.00%     28.92% # attempts to use FU when none available
system.cpu00.iq.fu_full::SimdAddAcc                 0      0.00%     28.92% # attempts to use FU when none available
system.cpu00.iq.fu_full::SimdAlu                    0      0.00%     28.92% # attempts to use FU when none available
system.cpu00.iq.fu_full::SimdCmp                    0      0.00%     28.92% # attempts to use FU when none available
system.cpu00.iq.fu_full::SimdCvt                    0      0.00%     28.92% # attempts to use FU when none available
system.cpu00.iq.fu_full::SimdMisc                   0      0.00%     28.92% # attempts to use FU when none available
system.cpu00.iq.fu_full::SimdMult                   0      0.00%     28.92% # attempts to use FU when none available
system.cpu00.iq.fu_full::SimdMultAcc                0      0.00%     28.92% # attempts to use FU when none available
system.cpu00.iq.fu_full::SimdShift                  0      0.00%     28.92% # attempts to use FU when none available
system.cpu00.iq.fu_full::SimdShiftAcc               0      0.00%     28.92% # attempts to use FU when none available
system.cpu00.iq.fu_full::SimdSqrt                   0      0.00%     28.92% # attempts to use FU when none available
system.cpu00.iq.fu_full::SimdFloatAdd               0      0.00%     28.92% # attempts to use FU when none available
system.cpu00.iq.fu_full::SimdFloatAlu               0      0.00%     28.92% # attempts to use FU when none available
system.cpu00.iq.fu_full::SimdFloatCmp               0      0.00%     28.92% # attempts to use FU when none available
system.cpu00.iq.fu_full::SimdFloatCvt               0      0.00%     28.92% # attempts to use FU when none available
system.cpu00.iq.fu_full::SimdFloatDiv               0      0.00%     28.92% # attempts to use FU when none available
system.cpu00.iq.fu_full::SimdFloatMisc              0      0.00%     28.92% # attempts to use FU when none available
system.cpu00.iq.fu_full::SimdFloatMult              0      0.00%     28.92% # attempts to use FU when none available
system.cpu00.iq.fu_full::SimdFloatMultAcc            0      0.00%     28.92% # attempts to use FU when none available
system.cpu00.iq.fu_full::SimdFloatSqrt              0      0.00%     28.92% # attempts to use FU when none available
system.cpu00.iq.fu_full::MemRead                24632     55.48%     84.41% # attempts to use FU when none available
system.cpu00.iq.fu_full::MemWrite                6923     15.59%    100.00% # attempts to use FU when none available
system.cpu00.iq.fu_full::IprAccess                  0      0.00%    100.00% # attempts to use FU when none available
system.cpu00.iq.fu_full::InstPrefetch               0      0.00%    100.00% # attempts to use FU when none available
system.cpu00.iq.FU_type_0::No_OpClass               0      0.00%      0.00% # Type of FU issued
system.cpu00.iq.FU_type_0::IntAlu             1753437     29.61%     29.61% # Type of FU issued
system.cpu00.iq.FU_type_0::IntMult                251      0.00%     29.61% # Type of FU issued
system.cpu00.iq.FU_type_0::IntDiv                   0      0.00%     29.61% # Type of FU issued
system.cpu00.iq.FU_type_0::FloatAdd           1713581     28.93%     58.54% # Type of FU issued
system.cpu00.iq.FU_type_0::FloatCmp                11      0.00%     58.54% # Type of FU issued
system.cpu00.iq.FU_type_0::FloatCvt                 0      0.00%     58.54% # Type of FU issued
system.cpu00.iq.FU_type_0::FloatMult           852373     14.39%     72.94% # Type of FU issued
system.cpu00.iq.FU_type_0::FloatDiv                 0      0.00%     72.94% # Type of FU issued
system.cpu00.iq.FU_type_0::FloatSqrt                0      0.00%     72.94% # Type of FU issued
system.cpu00.iq.FU_type_0::SimdAdd                  0      0.00%     72.94% # Type of FU issued
system.cpu00.iq.FU_type_0::SimdAddAcc               0      0.00%     72.94% # Type of FU issued
system.cpu00.iq.FU_type_0::SimdAlu                  0      0.00%     72.94% # Type of FU issued
system.cpu00.iq.FU_type_0::SimdCmp                  0      0.00%     72.94% # Type of FU issued
system.cpu00.iq.FU_type_0::SimdCvt                  0      0.00%     72.94% # Type of FU issued
system.cpu00.iq.FU_type_0::SimdMisc                 0      0.00%     72.94% # Type of FU issued
system.cpu00.iq.FU_type_0::SimdMult                 0      0.00%     72.94% # Type of FU issued
system.cpu00.iq.FU_type_0::SimdMultAcc              0      0.00%     72.94% # Type of FU issued
system.cpu00.iq.FU_type_0::SimdShift                0      0.00%     72.94% # Type of FU issued
system.cpu00.iq.FU_type_0::SimdShiftAcc             0      0.00%     72.94% # Type of FU issued
system.cpu00.iq.FU_type_0::SimdSqrt                 0      0.00%     72.94% # Type of FU issued
system.cpu00.iq.FU_type_0::SimdFloatAdd             0      0.00%     72.94% # Type of FU issued
system.cpu00.iq.FU_type_0::SimdFloatAlu             0      0.00%     72.94% # Type of FU issued
system.cpu00.iq.FU_type_0::SimdFloatCmp             0      0.00%     72.94% # Type of FU issued
system.cpu00.iq.FU_type_0::SimdFloatCvt             0      0.00%     72.94% # Type of FU issued
system.cpu00.iq.FU_type_0::SimdFloatDiv             0      0.00%     72.94% # Type of FU issued
system.cpu00.iq.FU_type_0::SimdFloatMisc            0      0.00%     72.94% # Type of FU issued
system.cpu00.iq.FU_type_0::SimdFloatMult            0      0.00%     72.94% # Type of FU issued
system.cpu00.iq.FU_type_0::SimdFloatMultAcc            0      0.00%     72.94% # Type of FU issued
system.cpu00.iq.FU_type_0::SimdFloatSqrt            0      0.00%     72.94% # Type of FU issued
system.cpu00.iq.FU_type_0::MemRead            1188320     20.06%     93.00% # Type of FU issued
system.cpu00.iq.FU_type_0::MemWrite            414618      7.00%    100.00% # Type of FU issued
system.cpu00.iq.FU_type_0::IprAccess                0      0.00%    100.00% # Type of FU issued
system.cpu00.iq.FU_type_0::InstPrefetch             0      0.00%    100.00% # Type of FU issued
system.cpu00.iq.FU_type_0::total              5922591                       # Type of FU issued
system.cpu00.iq.rate                         0.694510                       # Inst issue rate
system.cpu00.iq.fu_busy_cnt                     44395                       # FU busy when requested
system.cpu00.iq.fu_busy_rate                 0.007496                       # FU busy rate (busy events/executed inst)
system.cpu00.iq.int_inst_queue_reads         14475238                       # Number of integer instruction queue reads
system.cpu00.iq.int_inst_queue_writes         5244354                       # Number of integer instruction queue writes
system.cpu00.iq.int_inst_queue_wakeup_accesses      2869048                       # Number of integer instruction queue wakeup accesses
system.cpu00.iq.fp_inst_queue_reads           5731772                       # Number of floating instruction queue reads
system.cpu00.iq.fp_inst_queue_writes          2864008                       # Number of floating instruction queue writes
system.cpu00.iq.fp_inst_queue_wakeup_accesses      2861639                       # Number of floating instruction queue wakeup accesses
system.cpu00.iq.int_alu_accesses              3096939                       # Number of integer alu accesses
system.cpu00.iq.fp_alu_accesses               2870047                       # Number of floating point alu accesses
system.cpu00.iew.lsq.thread0.forwLoads           9629                       # Number of loads that had data forwarded from stores
system.cpu00.iew.lsq.thread0.invAddrLoads            0                       # Number of loads ignored due to an invalid address
system.cpu00.iew.lsq.thread0.squashedLoads       595460                       # Number of loads squashed
system.cpu00.iew.lsq.thread0.ignoredResponses           55                       # Number of memory responses ignored because the instruction is squashed
system.cpu00.iew.lsq.thread0.memOrderViolation          507                       # Number of memory ordering violations
system.cpu00.iew.lsq.thread0.squashedStores       320577                       # Number of stores squashed
system.cpu00.iew.lsq.thread0.invAddrSwpfs            0                       # Number of software prefetches ignored due to an invalid address
system.cpu00.iew.lsq.thread0.blockedLoads            0                       # Number of blocked loads due to partial load-store forwarding
system.cpu00.iew.lsq.thread0.rescheduledLoads          260                       # Number of loads that were rescheduled
system.cpu00.iew.lsq.thread0.cacheBlocked        99311                       # Number of times an access to memory failed due to the cache being blocked
system.cpu00.iew.iewIdleCycles                      0                       # Number of cycles IEW is idle
system.cpu00.iew.iewSquashCycles                22618                       # Number of cycles IEW is squashing
system.cpu00.iew.iewBlockCycles                989530                       # Number of cycles IEW is blocking
system.cpu00.iew.iewUnblockCycles              799602                       # Number of cycles IEW is unblocking
system.cpu00.iew.iewDispatchedInsts           6292793                       # Number of instructions dispatched to IQ
system.cpu00.iew.iewDispSquashedInsts            1014                       # Number of squashed instructions skipped by dispatch
system.cpu00.iew.iewDispLoadInsts             1198173                       # Number of dispatched load instructions
system.cpu00.iew.iewDispStoreInsts             532706                       # Number of dispatched store instructions
system.cpu00.iew.iewDispNonSpecInsts             1872                       # Number of dispatched non-speculative instructions
system.cpu00.iew.iewIQFullEvents                44189                       # Number of times the IQ has become full, causing a stall
system.cpu00.iew.iewLSQFullEvents              649800                       # Number of times the LSQ has become full, causing a stall
system.cpu00.iew.memOrderViolationEvents          507                       # Number of memory order violations
system.cpu00.iew.predictedTakenIncorrect         1523                       # Number of branches that were predicted taken incorrectly
system.cpu00.iew.predictedNotTakenIncorrect         2949                       # Number of branches that were predicted not taken incorrectly
system.cpu00.iew.branchMispredicts               4472                       # Number of branch mispredicts detected at execute
system.cpu00.iew.iewExecutedInsts             5913588                       # Number of executed instructions
system.cpu00.iew.iewExecLoadInsts             1183759                       # Number of load instructions executed
system.cpu00.iew.iewExecSquashedInsts            9003                       # Number of squashed instructions skipped in execute
system.cpu00.iew.exec_swp                           0                       # number of swp insts executed
system.cpu00.iew.exec_nop                       66144                       # number of nop insts executed
system.cpu00.iew.exec_refs                    1596173                       # number of memory reference insts executed
system.cpu00.iew.exec_branches                 287756                       # Number of branches executed
system.cpu00.iew.exec_stores                   412414                       # Number of stores executed
system.cpu00.iew.exec_rate                   0.693454                       # Inst execution rate
system.cpu00.iew.wb_sent                      5799974                       # cumulative count of insts sent to commit
system.cpu00.iew.wb_count                     5730687                       # cumulative count of insts written-back
system.cpu00.iew.wb_producers                 4525107                       # num instructions producing a value
system.cpu00.iew.wb_consumers                 5918952                       # num instructions consuming a value
system.cpu00.iew.wb_rate                     0.672007                       # insts written-back per cycle
system.cpu00.iew.wb_fanout                   0.764512                       # average fanout of values written-back
system.cpu00.commit.commitSquashedInsts       1879169                       # The number of squashed insts skipped by commit
system.cpu00.commit.commitNonSpecStalls          2704                       # The number of times commit has been forced to stall to communicate backwards
system.cpu00.commit.branchMispredicts            3695                       # The number of times a branch was mispredicted
system.cpu00.commit.committed_per_cycle::samples      8062551                       # Number of insts commited each cycle
system.cpu00.commit.committed_per_cycle::mean     0.546189                       # Number of insts commited each cycle
system.cpu00.commit.committed_per_cycle::stdev     1.299211                       # Number of insts commited each cycle
system.cpu00.commit.committed_per_cycle::underflows            0      0.00%      0.00% # Number of insts commited each cycle
system.cpu00.commit.committed_per_cycle::0      5840393     72.44%     72.44% # Number of insts commited each cycle
system.cpu00.commit.committed_per_cycle::1      1333069     16.53%     88.97% # Number of insts commited each cycle
system.cpu00.commit.committed_per_cycle::2       495027      6.14%     95.11% # Number of insts commited each cycle
system.cpu00.commit.committed_per_cycle::3       140257      1.74%     96.85% # Number of insts commited each cycle
system.cpu00.commit.committed_per_cycle::4        20499      0.25%     97.11% # Number of insts commited each cycle
system.cpu00.commit.committed_per_cycle::5        80890      1.00%     98.11% # Number of insts commited each cycle
system.cpu00.commit.committed_per_cycle::6        11994      0.15%     98.26% # Number of insts commited each cycle
system.cpu00.commit.committed_per_cycle::7        22007      0.27%     98.53% # Number of insts commited each cycle
system.cpu00.commit.committed_per_cycle::8       118415      1.47%    100.00% # Number of insts commited each cycle
system.cpu00.commit.committed_per_cycle::overflows            0      0.00%    100.00% # Number of insts commited each cycle
system.cpu00.commit.committed_per_cycle::min_value            0                       # Number of insts commited each cycle
system.cpu00.commit.committed_per_cycle::max_value            8                       # Number of insts commited each cycle
system.cpu00.commit.committed_per_cycle::total      8062551                       # Number of insts commited each cycle
system.cpu00.commit.committedInsts            4403673                       # Number of instructions committed
system.cpu00.commit.committedOps              4403673                       # Number of ops (including micro ops) committed
system.cpu00.commit.swp_count                       0                       # Number of s/w prefetches committed
system.cpu00.commit.refs                       814842                       # Number of memory references committed
system.cpu00.commit.loads                      602713                       # Number of loads committed
system.cpu00.commit.membars                      1140                       # Number of memory barriers committed
system.cpu00.commit.branches                   241933                       # Number of branches committed
system.cpu00.commit.fp_insts                  2860888                       # Number of committed floating point instructions.
system.cpu00.commit.int_insts                 1784352                       # Number of committed integer instructions.
system.cpu00.commit.function_calls              75183                       # Number of function calls committed.
system.cpu00.commit.op_class_0::No_OpClass        58236      1.32%      1.32% # Class of committed instruction
system.cpu00.commit.op_class_0::IntAlu         963882     21.89%     23.21% # Class of committed instruction
system.cpu00.commit.op_class_0::IntMult           244      0.01%     23.22% # Class of committed instruction
system.cpu00.commit.op_class_0::IntDiv              0      0.00%     23.22% # Class of committed instruction
system.cpu00.commit.op_class_0::FloatAdd      1713053     38.90%     62.12% # Class of committed instruction
system.cpu00.commit.op_class_0::FloatCmp           10      0.00%     62.12% # Class of committed instruction
system.cpu00.commit.op_class_0::FloatCvt            0      0.00%     62.12% # Class of committed instruction
system.cpu00.commit.op_class_0::FloatMult       852265     19.35%     81.47% # Class of committed instruction
system.cpu00.commit.op_class_0::FloatDiv            0      0.00%     81.47% # Class of committed instruction
system.cpu00.commit.op_class_0::FloatSqrt            0      0.00%     81.47% # Class of committed instruction
system.cpu00.commit.op_class_0::SimdAdd             0      0.00%     81.47% # Class of committed instruction
system.cpu00.commit.op_class_0::SimdAddAcc            0      0.00%     81.47% # Class of committed instruction
system.cpu00.commit.op_class_0::SimdAlu             0      0.00%     81.47% # Class of committed instruction
system.cpu00.commit.op_class_0::SimdCmp             0      0.00%     81.47% # Class of committed instruction
system.cpu00.commit.op_class_0::SimdCvt             0      0.00%     81.47% # Class of committed instruction
system.cpu00.commit.op_class_0::SimdMisc            0      0.00%     81.47% # Class of committed instruction
system.cpu00.commit.op_class_0::SimdMult            0      0.00%     81.47% # Class of committed instruction
system.cpu00.commit.op_class_0::SimdMultAcc            0      0.00%     81.47% # Class of committed instruction
system.cpu00.commit.op_class_0::SimdShift            0      0.00%     81.47% # Class of committed instruction
system.cpu00.commit.op_class_0::SimdShiftAcc            0      0.00%     81.47% # Class of committed instruction
system.cpu00.commit.op_class_0::SimdSqrt            0      0.00%     81.47% # Class of committed instruction
system.cpu00.commit.op_class_0::SimdFloatAdd            0      0.00%     81.47% # Class of committed instruction
system.cpu00.commit.op_class_0::SimdFloatAlu            0      0.00%     81.47% # Class of committed instruction
system.cpu00.commit.op_class_0::SimdFloatCmp            0      0.00%     81.47% # Class of committed instruction
system.cpu00.commit.op_class_0::SimdFloatCvt            0      0.00%     81.47% # Class of committed instruction
system.cpu00.commit.op_class_0::SimdFloatDiv            0      0.00%     81.47% # Class of committed instruction
system.cpu00.commit.op_class_0::SimdFloatMisc            0      0.00%     81.47% # Class of committed instruction
system.cpu00.commit.op_class_0::SimdFloatMult            0      0.00%     81.47% # Class of committed instruction
system.cpu00.commit.op_class_0::SimdFloatMultAcc            0      0.00%     81.47% # Class of committed instruction
system.cpu00.commit.op_class_0::SimdFloatSqrt            0      0.00%     81.47% # Class of committed instruction
system.cpu00.commit.op_class_0::MemRead        603853     13.71%     95.18% # Class of committed instruction
system.cpu00.commit.op_class_0::MemWrite       212130      4.82%    100.00% # Class of committed instruction
system.cpu00.commit.op_class_0::IprAccess            0      0.00%    100.00% # Class of committed instruction
system.cpu00.commit.op_class_0::InstPrefetch            0      0.00%    100.00% # Class of committed instruction
system.cpu00.commit.op_class_0::total         4403673                       # Class of committed instruction
system.cpu00.commit.bw_lim_events              118415                       # number cycles where commit BW limit reached
system.cpu00.rob.rob_reads                   13986725                       # The number of ROB reads
system.cpu00.rob.rob_writes                  12814013                       # The number of ROB writes
system.cpu00.timesIdled                          1500                       # Number of times that the entire CPU went into an idle state and unscheduled itself
system.cpu00.idleCycles                        216931                       # Total number of cycles that the CPU has spent unscheduled due to idling
system.cpu00.quiesceCycles                     326377                       # Total number of cycles that CPU has spent quiesced or waiting for an interrupt
system.cpu00.committedInsts                   4345437                       # Number of Instructions Simulated
system.cpu00.committedOps                     4345437                       # Number of Ops (including micro ops) Simulated
system.cpu00.cpi                             1.962455                       # CPI: Cycles Per Instruction
system.cpu00.cpi_total                       1.962455                       # CPI: Total CPI of All Threads
system.cpu00.ipc                             0.509566                       # IPC: Instructions Per Cycle
system.cpu00.ipc_total                       0.509566                       # IPC: Total IPC of All Threads
system.cpu00.int_regfile_reads                4543263                       # number of integer regfile reads
system.cpu00.int_regfile_writes               2262209                       # number of integer regfile writes
system.cpu00.fp_regfile_reads                 4016755                       # number of floating regfile reads
system.cpu00.fp_regfile_writes                2836025                       # number of floating regfile writes
system.cpu00.misc_regfile_reads                  3017                       # number of misc regfile reads
system.cpu00.misc_regfile_writes                 2496                       # number of misc regfile writes
system.cpu00.dcache.tags.replacements           69185                       # number of replacements
system.cpu00.dcache.tags.tagsinuse          63.792962                       # Cycle average of tags in use
system.cpu00.dcache.tags.total_refs           1133582                       # Total number of references to valid blocks.
system.cpu00.dcache.tags.sampled_refs           69249                       # Sample count of references to valid blocks.
system.cpu00.dcache.tags.avg_refs           16.369652                       # Average number of references to valid blocks.
system.cpu00.dcache.tags.warmup_cycle        87548688                       # Cycle when the warmup percentage was hit.
system.cpu00.dcache.tags.occ_blocks::cpu00.data    63.792962                       # Average occupied blocks per requestor
system.cpu00.dcache.tags.occ_percent::cpu00.data     0.996765                       # Average percentage of cache occupancy
system.cpu00.dcache.tags.occ_percent::total     0.996765                       # Average percentage of cache occupancy
system.cpu00.dcache.tags.occ_task_id_blocks::1024           64                       # Occupied blocks per task id
system.cpu00.dcache.tags.age_task_id_blocks_1024::0           47                       # Occupied blocks per task id
system.cpu00.dcache.tags.age_task_id_blocks_1024::1           16                       # Occupied blocks per task id
system.cpu00.dcache.tags.age_task_id_blocks_1024::2            1                       # Occupied blocks per task id
system.cpu00.dcache.tags.occ_task_id_percent::1024            1                       # Percentage of cache occupancy per task id
system.cpu00.dcache.tags.tag_accesses         2648162                       # Number of tag accesses
system.cpu00.dcache.tags.data_accesses        2648162                       # Number of data accesses
system.cpu00.dcache.ReadReq_hits::cpu00.data       996896                       # number of ReadReq hits
system.cpu00.dcache.ReadReq_hits::total        996896                       # number of ReadReq hits
system.cpu00.dcache.WriteReq_hits::cpu00.data       134383                       # number of WriteReq hits
system.cpu00.dcache.WriteReq_hits::total       134383                       # number of WriteReq hits
system.cpu00.dcache.LoadLockedReq_hits::cpu00.data          975                       # number of LoadLockedReq hits
system.cpu00.dcache.LoadLockedReq_hits::total          975                       # number of LoadLockedReq hits
system.cpu00.dcache.StoreCondReq_hits::cpu00.data         1233                       # number of StoreCondReq hits
system.cpu00.dcache.StoreCondReq_hits::total         1233                       # number of StoreCondReq hits
system.cpu00.dcache.demand_hits::cpu00.data      1131279                       # number of demand (read+write) hits
system.cpu00.dcache.demand_hits::total        1131279                       # number of demand (read+write) hits
system.cpu00.dcache.overall_hits::cpu00.data      1131279                       # number of overall hits
system.cpu00.dcache.overall_hits::total       1131279                       # number of overall hits
system.cpu00.dcache.ReadReq_misses::cpu00.data        79038                       # number of ReadReq misses
system.cpu00.dcache.ReadReq_misses::total        79038                       # number of ReadReq misses
system.cpu00.dcache.WriteReq_misses::cpu00.data        76500                       # number of WriteReq misses
system.cpu00.dcache.WriteReq_misses::total        76500                       # number of WriteReq misses
system.cpu00.dcache.LoadLockedReq_misses::cpu00.data          322                       # number of LoadLockedReq misses
system.cpu00.dcache.LoadLockedReq_misses::total          322                       # number of LoadLockedReq misses
system.cpu00.dcache.StoreCondReq_misses::cpu00.data           13                       # number of StoreCondReq misses
system.cpu00.dcache.StoreCondReq_misses::total           13                       # number of StoreCondReq misses
system.cpu00.dcache.demand_misses::cpu00.data       155538                       # number of demand (read+write) misses
system.cpu00.dcache.demand_misses::total       155538                       # number of demand (read+write) misses
system.cpu00.dcache.overall_misses::cpu00.data       155538                       # number of overall misses
system.cpu00.dcache.overall_misses::total       155538                       # number of overall misses
system.cpu00.dcache.ReadReq_miss_latency::cpu00.data   6983543871                       # number of ReadReq miss cycles
system.cpu00.dcache.ReadReq_miss_latency::total   6983543871                       # number of ReadReq miss cycles
system.cpu00.dcache.WriteReq_miss_latency::cpu00.data  10959465210                       # number of WriteReq miss cycles
system.cpu00.dcache.WriteReq_miss_latency::total  10959465210                       # number of WriteReq miss cycles
system.cpu00.dcache.LoadLockedReq_miss_latency::cpu00.data      4245777                       # number of LoadLockedReq miss cycles
system.cpu00.dcache.LoadLockedReq_miss_latency::total      4245777                       # number of LoadLockedReq miss cycles
system.cpu00.dcache.StoreCondReq_miss_latency::cpu00.data       103329                       # number of StoreCondReq miss cycles
system.cpu00.dcache.StoreCondReq_miss_latency::total       103329                       # number of StoreCondReq miss cycles
system.cpu00.dcache.demand_miss_latency::cpu00.data  17943009081                       # number of demand (read+write) miss cycles
system.cpu00.dcache.demand_miss_latency::total  17943009081                       # number of demand (read+write) miss cycles
system.cpu00.dcache.overall_miss_latency::cpu00.data  17943009081                       # number of overall miss cycles
system.cpu00.dcache.overall_miss_latency::total  17943009081                       # number of overall miss cycles
system.cpu00.dcache.ReadReq_accesses::cpu00.data      1075934                       # number of ReadReq accesses(hits+misses)
system.cpu00.dcache.ReadReq_accesses::total      1075934                       # number of ReadReq accesses(hits+misses)
system.cpu00.dcache.WriteReq_accesses::cpu00.data       210883                       # number of WriteReq accesses(hits+misses)
system.cpu00.dcache.WriteReq_accesses::total       210883                       # number of WriteReq accesses(hits+misses)
system.cpu00.dcache.LoadLockedReq_accesses::cpu00.data         1297                       # number of LoadLockedReq accesses(hits+misses)
system.cpu00.dcache.LoadLockedReq_accesses::total         1297                       # number of LoadLockedReq accesses(hits+misses)
system.cpu00.dcache.StoreCondReq_accesses::cpu00.data         1246                       # number of StoreCondReq accesses(hits+misses)
system.cpu00.dcache.StoreCondReq_accesses::total         1246                       # number of StoreCondReq accesses(hits+misses)
system.cpu00.dcache.demand_accesses::cpu00.data      1286817                       # number of demand (read+write) accesses
system.cpu00.dcache.demand_accesses::total      1286817                       # number of demand (read+write) accesses
system.cpu00.dcache.overall_accesses::cpu00.data      1286817                       # number of overall (read+write) accesses
system.cpu00.dcache.overall_accesses::total      1286817                       # number of overall (read+write) accesses
system.cpu00.dcache.ReadReq_miss_rate::cpu00.data     0.073460                       # miss rate for ReadReq accesses
system.cpu00.dcache.ReadReq_miss_rate::total     0.073460                       # miss rate for ReadReq accesses
system.cpu00.dcache.WriteReq_miss_rate::cpu00.data     0.362760                       # miss rate for WriteReq accesses
system.cpu00.dcache.WriteReq_miss_rate::total     0.362760                       # miss rate for WriteReq accesses
system.cpu00.dcache.LoadLockedReq_miss_rate::cpu00.data     0.248265                       # miss rate for LoadLockedReq accesses
system.cpu00.dcache.LoadLockedReq_miss_rate::total     0.248265                       # miss rate for LoadLockedReq accesses
system.cpu00.dcache.StoreCondReq_miss_rate::cpu00.data     0.010433                       # miss rate for StoreCondReq accesses
system.cpu00.dcache.StoreCondReq_miss_rate::total     0.010433                       # miss rate for StoreCondReq accesses
system.cpu00.dcache.demand_miss_rate::cpu00.data     0.120870                       # miss rate for demand accesses
system.cpu00.dcache.demand_miss_rate::total     0.120870                       # miss rate for demand accesses
system.cpu00.dcache.overall_miss_rate::cpu00.data     0.120870                       # miss rate for overall accesses
system.cpu00.dcache.overall_miss_rate::total     0.120870                       # miss rate for overall accesses
system.cpu00.dcache.ReadReq_avg_miss_latency::cpu00.data 88356.788772                       # average ReadReq miss latency
system.cpu00.dcache.ReadReq_avg_miss_latency::total 88356.788772                       # average ReadReq miss latency
system.cpu00.dcache.WriteReq_avg_miss_latency::cpu00.data 143260.983137                       # average WriteReq miss latency
system.cpu00.dcache.WriteReq_avg_miss_latency::total 143260.983137                       # average WriteReq miss latency
system.cpu00.dcache.LoadLockedReq_avg_miss_latency::cpu00.data 13185.642857                       # average LoadLockedReq miss latency
system.cpu00.dcache.LoadLockedReq_avg_miss_latency::total 13185.642857                       # average LoadLockedReq miss latency
system.cpu00.dcache.StoreCondReq_avg_miss_latency::cpu00.data  7948.384615                       # average StoreCondReq miss latency
system.cpu00.dcache.StoreCondReq_avg_miss_latency::total  7948.384615                       # average StoreCondReq miss latency
system.cpu00.dcache.demand_avg_miss_latency::cpu00.data 115360.934826                       # average overall miss latency
system.cpu00.dcache.demand_avg_miss_latency::total 115360.934826                       # average overall miss latency
system.cpu00.dcache.overall_avg_miss_latency::cpu00.data 115360.934826                       # average overall miss latency
system.cpu00.dcache.overall_avg_miss_latency::total 115360.934826                       # average overall miss latency
system.cpu00.dcache.blocked_cycles::no_mshrs       359309                       # number of cycles access was blocked
system.cpu00.dcache.blocked_cycles::no_targets          176                       # number of cycles access was blocked
system.cpu00.dcache.blocked::no_mshrs           10893                       # number of cycles access was blocked
system.cpu00.dcache.blocked::no_targets            18                       # number of cycles access was blocked
system.cpu00.dcache.avg_blocked_cycles::no_mshrs    32.985312                       # average number of cycles each access was blocked
system.cpu00.dcache.avg_blocked_cycles::no_targets     9.777778                       # average number of cycles each access was blocked
system.cpu00.dcache.fast_writes                     0                       # number of fast writes performed
system.cpu00.dcache.cache_copies                    0                       # number of cache copies performed
system.cpu00.dcache.writebacks::writebacks        61113                       # number of writebacks
system.cpu00.dcache.writebacks::total           61113                       # number of writebacks
system.cpu00.dcache.ReadReq_mshr_hits::cpu00.data        48880                       # number of ReadReq MSHR hits
system.cpu00.dcache.ReadReq_mshr_hits::total        48880                       # number of ReadReq MSHR hits
system.cpu00.dcache.WriteReq_mshr_hits::cpu00.data        37341                       # number of WriteReq MSHR hits
system.cpu00.dcache.WriteReq_mshr_hits::total        37341                       # number of WriteReq MSHR hits
system.cpu00.dcache.LoadLockedReq_mshr_hits::cpu00.data          137                       # number of LoadLockedReq MSHR hits
system.cpu00.dcache.LoadLockedReq_mshr_hits::total          137                       # number of LoadLockedReq MSHR hits
system.cpu00.dcache.demand_mshr_hits::cpu00.data        86221                       # number of demand (read+write) MSHR hits
system.cpu00.dcache.demand_mshr_hits::total        86221                       # number of demand (read+write) MSHR hits
system.cpu00.dcache.overall_mshr_hits::cpu00.data        86221                       # number of overall MSHR hits
system.cpu00.dcache.overall_mshr_hits::total        86221                       # number of overall MSHR hits
system.cpu00.dcache.ReadReq_mshr_misses::cpu00.data        30158                       # number of ReadReq MSHR misses
system.cpu00.dcache.ReadReq_mshr_misses::total        30158                       # number of ReadReq MSHR misses
system.cpu00.dcache.WriteReq_mshr_misses::cpu00.data        39159                       # number of WriteReq MSHR misses
system.cpu00.dcache.WriteReq_mshr_misses::total        39159                       # number of WriteReq MSHR misses
system.cpu00.dcache.LoadLockedReq_mshr_misses::cpu00.data          185                       # number of LoadLockedReq MSHR misses
system.cpu00.dcache.LoadLockedReq_mshr_misses::total          185                       # number of LoadLockedReq MSHR misses
system.cpu00.dcache.StoreCondReq_mshr_misses::cpu00.data           13                       # number of StoreCondReq MSHR misses
system.cpu00.dcache.StoreCondReq_mshr_misses::total           13                       # number of StoreCondReq MSHR misses
system.cpu00.dcache.demand_mshr_misses::cpu00.data        69317                       # number of demand (read+write) MSHR misses
system.cpu00.dcache.demand_mshr_misses::total        69317                       # number of demand (read+write) MSHR misses
system.cpu00.dcache.overall_mshr_misses::cpu00.data        69317                       # number of overall MSHR misses
system.cpu00.dcache.overall_mshr_misses::total        69317                       # number of overall MSHR misses
system.cpu00.dcache.ReadReq_mshr_miss_latency::cpu00.data   2678786910                       # number of ReadReq MSHR miss cycles
system.cpu00.dcache.ReadReq_mshr_miss_latency::total   2678786910                       # number of ReadReq MSHR miss cycles
system.cpu00.dcache.WriteReq_mshr_miss_latency::cpu00.data   4856603051                       # number of WriteReq MSHR miss cycles
system.cpu00.dcache.WriteReq_mshr_miss_latency::total   4856603051                       # number of WriteReq MSHR miss cycles
system.cpu00.dcache.LoadLockedReq_mshr_miss_latency::cpu00.data      2010852                       # number of LoadLockedReq MSHR miss cycles
system.cpu00.dcache.LoadLockedReq_mshr_miss_latency::total      2010852                       # number of LoadLockedReq MSHR miss cycles
system.cpu00.dcache.StoreCondReq_mshr_miss_latency::cpu00.data        88236                       # number of StoreCondReq MSHR miss cycles
system.cpu00.dcache.StoreCondReq_mshr_miss_latency::total        88236                       # number of StoreCondReq MSHR miss cycles
system.cpu00.dcache.demand_mshr_miss_latency::cpu00.data   7535389961                       # number of demand (read+write) MSHR miss cycles
system.cpu00.dcache.demand_mshr_miss_latency::total   7535389961                       # number of demand (read+write) MSHR miss cycles
system.cpu00.dcache.overall_mshr_miss_latency::cpu00.data   7535389961                       # number of overall MSHR miss cycles
system.cpu00.dcache.overall_mshr_miss_latency::total   7535389961                       # number of overall MSHR miss cycles
system.cpu00.dcache.ReadReq_mshr_miss_rate::cpu00.data     0.028030                       # mshr miss rate for ReadReq accesses
system.cpu00.dcache.ReadReq_mshr_miss_rate::total     0.028030                       # mshr miss rate for ReadReq accesses
system.cpu00.dcache.WriteReq_mshr_miss_rate::cpu00.data     0.185691                       # mshr miss rate for WriteReq accesses
system.cpu00.dcache.WriteReq_mshr_miss_rate::total     0.185691                       # mshr miss rate for WriteReq accesses
system.cpu00.dcache.LoadLockedReq_mshr_miss_rate::cpu00.data     0.142637                       # mshr miss rate for LoadLockedReq accesses
system.cpu00.dcache.LoadLockedReq_mshr_miss_rate::total     0.142637                       # mshr miss rate for LoadLockedReq accesses
system.cpu00.dcache.StoreCondReq_mshr_miss_rate::cpu00.data     0.010433                       # mshr miss rate for StoreCondReq accesses
system.cpu00.dcache.StoreCondReq_mshr_miss_rate::total     0.010433                       # mshr miss rate for StoreCondReq accesses
system.cpu00.dcache.demand_mshr_miss_rate::cpu00.data     0.053867                       # mshr miss rate for demand accesses
system.cpu00.dcache.demand_mshr_miss_rate::total     0.053867                       # mshr miss rate for demand accesses
system.cpu00.dcache.overall_mshr_miss_rate::cpu00.data     0.053867                       # mshr miss rate for overall accesses
system.cpu00.dcache.overall_mshr_miss_rate::total     0.053867                       # mshr miss rate for overall accesses
system.cpu00.dcache.ReadReq_avg_mshr_miss_latency::cpu00.data 88825.084886                       # average ReadReq mshr miss latency
system.cpu00.dcache.ReadReq_avg_mshr_miss_latency::total 88825.084886                       # average ReadReq mshr miss latency
system.cpu00.dcache.WriteReq_avg_mshr_miss_latency::cpu00.data 124022.652545                       # average WriteReq mshr miss latency
system.cpu00.dcache.WriteReq_avg_mshr_miss_latency::total 124022.652545                       # average WriteReq mshr miss latency
system.cpu00.dcache.LoadLockedReq_avg_mshr_miss_latency::cpu00.data 10869.470270                       # average LoadLockedReq mshr miss latency
system.cpu00.dcache.LoadLockedReq_avg_mshr_miss_latency::total 10869.470270                       # average LoadLockedReq mshr miss latency
system.cpu00.dcache.StoreCondReq_avg_mshr_miss_latency::cpu00.data  6787.384615                       # average StoreCondReq mshr miss latency
system.cpu00.dcache.StoreCondReq_avg_mshr_miss_latency::total  6787.384615                       # average StoreCondReq mshr miss latency
system.cpu00.dcache.demand_avg_mshr_miss_latency::cpu00.data 108709.118413                       # average overall mshr miss latency
system.cpu00.dcache.demand_avg_mshr_miss_latency::total 108709.118413                       # average overall mshr miss latency
system.cpu00.dcache.overall_avg_mshr_miss_latency::cpu00.data 108709.118413                       # average overall mshr miss latency
system.cpu00.dcache.overall_avg_mshr_miss_latency::total 108709.118413                       # average overall mshr miss latency
system.cpu00.dcache.no_allocate_misses              0                       # Number of misses that were no-allocate
system.cpu00.icache.tags.replacements            7161                       # number of replacements
system.cpu00.icache.tags.tagsinuse         507.018076                       # Cycle average of tags in use
[...]
system.tol2bus.pkt_count_system.cpu06.dcache.mem_side::system.l2.cpu_side       163982                       # Packet count per connected master and slave (bytes)
system.tol2bus.pkt_count_system.cpu07.icache.mem_side::system.l2.cpu_side          995                       # Packet count per connected master and slave (bytes)
system.tol2bus.pkt_count_system.cpu07.dcache.mem_side::system.l2.cpu_side       157649                       # Packet count per connected master and slave (bytes)
system.tol2bus.pkt_count_system.cpu08.icache.mem_side::system.l2.cpu_side          844                       # Packet count per connected master and slave (bytes)
system.tol2bus.pkt_count_system.cpu08.dcache.mem_side::system.l2.cpu_side       187364                       # Packet count per connected master and slave (bytes)
system.tol2bus.pkt_count_system.cpu09.icache.mem_side::system.l2.cpu_side          992                       # Packet count per connected master and slave (bytes)
system.tol2bus.pkt_count_system.cpu09.dcache.mem_side::system.l2.cpu_side       157299                       # Packet count per connected master and slave (bytes)
system.tol2bus.pkt_count_system.cpu10.icache.mem_side::system.l2.cpu_side          846                       # Packet count per connected master and slave (bytes)
system.tol2bus.pkt_count_system.cpu10.dcache.mem_side::system.l2.cpu_side       162570                       # Packet count per connected master and slave (bytes)
system.tol2bus.pkt_count_system.cpu11.icache.mem_side::system.l2.cpu_side          998                       # Packet count per connected master and slave (bytes)
system.tol2bus.pkt_count_system.cpu11.dcache.mem_side::system.l2.cpu_side       156774                       # Packet count per connected master and slave (bytes)
system.tol2bus.pkt_count_system.cpu12.icache.mem_side::system.l2.cpu_side         1088                       # Packet count per connected master and slave (bytes)
system.tol2bus.pkt_count_system.cpu12.dcache.mem_side::system.l2.cpu_side       174799                       # Packet count per connected master and slave (bytes)
system.tol2bus.pkt_count_system.cpu13.icache.mem_side::system.l2.cpu_side          844                       # Packet count per connected master and slave (bytes)
system.tol2bus.pkt_count_system.cpu13.dcache.mem_side::system.l2.cpu_side       156664                       # Packet count per connected master and slave (bytes)
system.tol2bus.pkt_count_system.cpu14.icache.mem_side::system.l2.cpu_side         1013                       # Packet count per connected master and slave (bytes)
system.tol2bus.pkt_count_system.cpu14.dcache.mem_side::system.l2.cpu_side       164803                       # Packet count per connected master and slave (bytes)
system.tol2bus.pkt_count_system.cpu15.icache.mem_side::system.l2.cpu_side         1002                       # Packet count per connected master and slave (bytes)
system.tol2bus.pkt_count_system.cpu15.dcache.mem_side::system.l2.cpu_side       163366                       # Packet count per connected master and slave (bytes)
system.tol2bus.pkt_count::total               2694129                       # Packet count per connected master and slave (bytes)
system.tol2bus.pkt_size_system.cpu00.icache.mem_side::system.l2.cpu_side       949376                       # Cumulative packet size per connected master and slave (bytes)
system.tol2bus.pkt_size_system.cpu00.dcache.mem_side::system.l2.cpu_side      8324480                       # Cumulative packet size per connected master and slave (bytes)
system.tol2bus.pkt_size_system.cpu01.icache.mem_side::system.l2.cpu_side        37248                       # Cumulative packet size per connected master and slave (bytes)
system.tol2bus.pkt_size_system.cpu01.dcache.mem_side::system.l2.cpu_side      6332224                       # Cumulative packet size per connected master and slave (bytes)
system.tol2bus.pkt_size_system.cpu02.icache.mem_side::system.l2.cpu_side        29888                       # Cumulative packet size per connected master and slave (bytes)
system.tol2bus.pkt_size_system.cpu02.dcache.mem_side::system.l2.cpu_side      6691520                       # Cumulative packet size per connected master and slave (bytes)
system.tol2bus.pkt_size_system.cpu03.icache.mem_side::system.l2.cpu_side        34624                       # Cumulative packet size per connected master and slave (bytes)
system.tol2bus.pkt_size_system.cpu03.dcache.mem_side::system.l2.cpu_side      6460992                       # Cumulative packet size per connected master and slave (bytes)
system.tol2bus.pkt_size_system.cpu04.icache.mem_side::system.l2.cpu_side        28544                       # Cumulative packet size per connected master and slave (bytes)
system.tol2bus.pkt_size_system.cpu04.dcache.mem_side::system.l2.cpu_side      7198848                       # Cumulative packet size per connected master and slave (bytes)
system.tol2bus.pkt_size_system.cpu05.icache.mem_side::system.l2.cpu_side        34496                       # Cumulative packet size per connected master and slave (bytes)
system.tol2bus.pkt_size_system.cpu05.dcache.mem_side::system.l2.cpu_side      6474240                       # Cumulative packet size per connected master and slave (bytes)
system.tol2bus.pkt_size_system.cpu06.icache.mem_side::system.l2.cpu_side        28544                       # Cumulative packet size per connected master and slave (bytes)
system.tol2bus.pkt_size_system.cpu06.dcache.mem_side::system.l2.cpu_side      6772672                       # Cumulative packet size per connected master and slave (bytes)
system.tol2bus.pkt_size_system.cpu07.icache.mem_side::system.l2.cpu_side        34496                       # Cumulative packet size per connected master and slave (bytes)
system.tol2bus.pkt_size_system.cpu07.dcache.mem_side::system.l2.cpu_side      6469824                       # Cumulative packet size per connected master and slave (bytes)
system.tol2bus.pkt_size_system.cpu08.icache.mem_side::system.l2.cpu_side        28480                       # Cumulative packet size per connected master and slave (bytes)
system.tol2bus.pkt_size_system.cpu08.dcache.mem_side::system.l2.cpu_side      7733504                       # Cumulative packet size per connected master and slave (bytes)
system.tol2bus.pkt_size_system.cpu09.icache.mem_side::system.l2.cpu_side        34368                       # Cumulative packet size per connected master and slave (bytes)
system.tol2bus.pkt_size_system.cpu09.dcache.mem_side::system.l2.cpu_side      6508352                       # Cumulative packet size per connected master and slave (bytes)
system.tol2bus.pkt_size_system.cpu10.icache.mem_side::system.l2.cpu_side        28544                       # Cumulative packet size per connected master and slave (bytes)
system.tol2bus.pkt_size_system.cpu10.dcache.mem_side::system.l2.cpu_side      6701504                       # Cumulative packet size per connected master and slave (bytes)
system.tol2bus.pkt_size_system.cpu11.icache.mem_side::system.l2.cpu_side        34624                       # Cumulative packet size per connected master and slave (bytes)
system.tol2bus.pkt_size_system.cpu11.dcache.mem_side::system.l2.cpu_side      6458816                       # Cumulative packet size per connected master and slave (bytes)
system.tol2bus.pkt_size_system.cpu12.icache.mem_side::system.l2.cpu_side        38144                       # Cumulative packet size per connected master and slave (bytes)
system.tol2bus.pkt_size_system.cpu12.dcache.mem_side::system.l2.cpu_side      7174016                       # Cumulative packet size per connected master and slave (bytes)
system.tol2bus.pkt_size_system.cpu13.icache.mem_side::system.l2.cpu_side        28480                       # Cumulative packet size per connected master and slave (bytes)
system.tol2bus.pkt_size_system.cpu13.dcache.mem_side::system.l2.cpu_side      6464320                       # Cumulative packet size per connected master and slave (bytes)
system.tol2bus.pkt_size_system.cpu14.icache.mem_side::system.l2.cpu_side        35136                       # Cumulative packet size per connected master and slave (bytes)
system.tol2bus.pkt_size_system.cpu14.dcache.mem_side::system.l2.cpu_side      6755776                       # Cumulative packet size per connected master and slave (bytes)
system.tol2bus.pkt_size_system.cpu15.icache.mem_side::system.l2.cpu_side        34752                       # Cumulative packet size per connected master and slave (bytes)
system.tol2bus.pkt_size_system.cpu15.dcache.mem_side::system.l2.cpu_side      6753408                       # Cumulative packet size per connected master and slave (bytes)
system.tol2bus.pkt_size::total              110714240                       # Cumulative packet size per connected master and slave (bytes)
system.tol2bus.snoops                          134180                       # Total snoops (count)
system.tol2bus.snoop_fanout::samples          1034830                       # Request fanout histogram
system.tol2bus.snoop_fanout::mean            0.081256                       # Request fanout histogram
system.tol2bus.snoop_fanout::stdev           0.848396                       # Request fanout histogram
system.tol2bus.snoop_fanout::underflows             0      0.00%      0.00% # Request fanout histogram
system.tol2bus.snoop_fanout::0                1014720     98.06%     98.06% # Request fanout histogram
system.tol2bus.snoop_fanout::1                  10076      0.97%     99.03% # Request fanout histogram
system.tol2bus.snoop_fanout::2                   1631      0.16%     99.19% # Request fanout histogram
system.tol2bus.snoop_fanout::3                   1072      0.10%     99.29% # Request fanout histogram
system.tol2bus.snoop_fanout::4                    835      0.08%     99.37% # Request fanout histogram
system.tol2bus.snoop_fanout::5                    796      0.08%     99.45% # Request fanout histogram
system.tol2bus.snoop_fanout::6                    686      0.07%     99.52% # Request fanout histogram
system.tol2bus.snoop_fanout::7                    597      0.06%     99.57% # Request fanout histogram
system.tol2bus.snoop_fanout::8                    571      0.06%     99.63% # Request fanout histogram
system.tol2bus.snoop_fanout::9                    546      0.05%     99.68% # Request fanout histogram
system.tol2bus.snoop_fanout::10                   489      0.05%     99.73% # Request fanout histogram
system.tol2bus.snoop_fanout::11                   493      0.05%     99.78% # Request fanout histogram
system.tol2bus.snoop_fanout::12                   476      0.05%     99.82% # Request fanout histogram
system.tol2bus.snoop_fanout::13                   463      0.04%     99.87% # Request fanout histogram
system.tol2bus.snoop_fanout::14                   473      0.05%     99.91% # Request fanout histogram
system.tol2bus.snoop_fanout::15                   727      0.07%     99.98% # Request fanout histogram
system.tol2bus.snoop_fanout::16                   179      0.02%    100.00% # Request fanout histogram
system.tol2bus.snoop_fanout::17                     0      0.00%    100.00% # Request fanout histogram
system.tol2bus.snoop_fanout::18                     0      0.00%    100.00% # Request fanout histogram
system.tol2bus.snoop_fanout::19                     0      0.00%    100.00% # Request fanout histogram
system.tol2bus.snoop_fanout::20                     0      0.00%    100.00% # Request fanout histogram
system.tol2bus.snoop_fanout::21                     0      0.00%    100.00% # Request fanout histogram
system.tol2bus.snoop_fanout::22                     0      0.00%    100.00% # Request fanout histogram
system.tol2bus.snoop_fanout::23                     0      0.00%    100.00% # Request fanout histogram
system.tol2bus.snoop_fanout::24                     0      0.00%    100.00% # Request fanout histogram
system.tol2bus.snoop_fanout::25                     0      0.00%    100.00% # Request fanout histogram
system.tol2bus.snoop_fanout::26                     0      0.00%    100.00% # Request fanout histogram
system.tol2bus.snoop_fanout::27                     0      0.00%    100.00% # Request fanout histogram
system.tol2bus.snoop_fanout::28                     0      0.00%    100.00% # Request fanout histogram
system.tol2bus.snoop_fanout::29                     0      0.00%    100.00% # Request fanout histogram
system.tol2bus.snoop_fanout::30                     0      0.00%    100.00% # Request fanout histogram
system.tol2bus.snoop_fanout::31                     0      0.00%    100.00% # Request fanout histogram
system.tol2bus.snoop_fanout::32                     0      0.00%    100.00% # Request fanout histogram
system.tol2bus.snoop_fanout::overflows              0      0.00%    100.00% # Request fanout histogram
system.tol2bus.snoop_fanout::min_value              0                       # Request fanout histogram
system.tol2bus.snoop_fanout::max_value             16                       # Request fanout histogram
system.tol2bus.snoop_fanout::total            1034830                       # Request fanout histogram
system.tol2bus.reqLayer0.occupancy         4031200422                       # Layer occupancy (ticks)
system.tol2bus.reqLayer0.utilization             39.2                       # Layer utilization (%)
system.tol2bus.respLayer0.occupancy          27075923                       # Layer occupancy (ticks)
system.tol2bus.respLayer0.utilization             0.3                       # Layer utilization (%)
system.tol2bus.respLayer1.occupancy         243971030                       # Layer occupancy (ticks)
system.tol2bus.respLayer1.utilization             2.4                       # Layer utilization (%)
system.tol2bus.respLayer2.occupancy           1692182                       # Layer occupancy (ticks)
system.tol2bus.respLayer2.utilization             0.0                       # Layer utilization (%)
system.tol2bus.respLayer3.occupancy         182861775                       # Layer occupancy (ticks)
system.tol2bus.respLayer3.utilization             1.8                       # Layer utilization (%)
system.tol2bus.respLayer4.occupancy           1480698                       # Layer occupancy (ticks)
system.tol2bus.respLayer4.utilization             0.0                       # Layer utilization (%)
system.tol2bus.respLayer5.occupancy         190428810                       # Layer occupancy (ticks)
system.tol2bus.respLayer5.utilization             1.9                       # Layer utilization (%)
system.tol2bus.respLayer6.occupancy           1618371                       # Layer occupancy (ticks)
system.tol2bus.respLayer6.utilization             0.0                       # Layer utilization (%)
system.tol2bus.respLayer7.occupancy         183505531                       # Layer occupancy (ticks)
system.tol2bus.respLayer7.utilization             1.8                       # Layer utilization (%)
system.tol2bus.respLayer8.occupancy           1412874                       # Layer occupancy (ticks)
system.tol2bus.respLayer8.utilization             0.0                       # Layer utilization (%)
system.tol2bus.respLayer9.occupancy         205092399                       # Layer occupancy (ticks)
system.tol2bus.respLayer9.utilization             2.0                       # Layer utilization (%)
system.tol2bus.respLayer10.occupancy          1611395                       # Layer occupancy (ticks)
system.tol2bus.respLayer10.utilization            0.0                       # Layer utilization (%)
system.tol2bus.respLayer11.occupancy        183784010                       # Layer occupancy (ticks)
system.tol2bus.respLayer11.utilization            1.8                       # Layer utilization (%)
system.tol2bus.respLayer12.occupancy          1417478                       # Layer occupancy (ticks)
system.tol2bus.respLayer12.utilization            0.0                       # Layer utilization (%)
system.tol2bus.respLayer13.occupancy        192801058                       # Layer occupancy (ticks)
system.tol2bus.respLayer13.utilization            1.9                       # Layer utilization (%)
system.tol2bus.respLayer14.occupancy          1607905                       # Layer occupancy (ticks)
system.tol2bus.respLayer14.utilization            0.0                       # Layer utilization (%)
system.tol2bus.respLayer15.occupancy        185280416                       # Layer occupancy (ticks)
system.tol2bus.respLayer15.utilization            1.8                       # Layer utilization (%)
system.tol2bus.respLayer16.occupancy          1411758                       # Layer occupancy (ticks)
system.tol2bus.respLayer16.utilization            0.0                       # Layer utilization (%)
system.tol2bus.respLayer17.occupancy        220207572                       # Layer occupancy (ticks)
system.tol2bus.respLayer17.utilization            2.1                       # Layer utilization (%)
system.tol2bus.respLayer18.occupancy          1611387                       # Layer occupancy (ticks)
system.tol2bus.respLayer18.utilization            0.0                       # Layer utilization (%)
system.tol2bus.respLayer19.occupancy        184779701                       # Layer occupancy (ticks)
system.tol2bus.respLayer19.utilization            1.8                       # Layer utilization (%)
system.tol2bus.respLayer20.occupancy          1420318                       # Layer occupancy (ticks)
system.tol2bus.respLayer20.utilization            0.0                       # Layer utilization (%)
system.tol2bus.respLayer21.occupancy        191153838                       # Layer occupancy (ticks)
system.tol2bus.respLayer21.utilization            1.9                       # Layer utilization (%)
system.tol2bus.respLayer22.occupancy          1613688                       # Layer occupancy (ticks)
system.tol2bus.respLayer22.utilization            0.0                       # Layer utilization (%)
system.tol2bus.respLayer23.occupancy        184225114                       # Layer occupancy (ticks)
system.tol2bus.respLayer23.utilization            1.8                       # Layer utilization (%)
system.tol2bus.respLayer24.occupancy          1737733                       # Layer occupancy (ticks)
system.tol2bus.respLayer24.utilization            0.0                       # Layer utilization (%)
system.tol2bus.respLayer25.occupancy        205592349                       # Layer occupancy (ticks)
system.tol2bus.respLayer25.utilization            2.0                       # Layer utilization (%)
system.tol2bus.respLayer26.occupancy          1408538                       # Layer occupancy (ticks)
system.tol2bus.respLayer26.utilization            0.0                       # Layer utilization (%)
system.tol2bus.respLayer27.occupancy        184077962                       # Layer occupancy (ticks)
system.tol2bus.respLayer27.utilization            1.8                       # Layer utilization (%)
system.tol2bus.respLayer28.occupancy          1640401                       # Layer occupancy (ticks)
system.tol2bus.respLayer28.utilization            0.0                       # Layer utilization (%)
system.tol2bus.respLayer29.occupancy        194075008                       # Layer occupancy (ticks)
system.tol2bus.respLayer29.utilization            1.9                       # Layer utilization (%)
system.tol2bus.respLayer30.occupancy          1617218                       # Layer occupancy (ticks)
system.tol2bus.respLayer30.utilization            0.0                       # Layer utilization (%)
system.tol2bus.respLayer31.occupancy        191942000                       # Layer occupancy (ticks)
system.tol2bus.respLayer31.utilization            1.9                       # Layer utilization (%)

---------- End Simulation Statistics   ----------
