
---------- Begin Simulation Statistics ----------
sim_seconds                                  0.023894                       # Number of seconds simulated
sim_ticks                                 23894175285                       # Number of ticks simulated
final_tick                                23894175285                       # Number of ticks from beginning of simulation (restored from checkpoints and never reset)
sim_freq                                 1000000000000                       # Frequency of simulated ticks
host_inst_rate                                 115772                       # Simulator instruction rate (inst/s)
host_op_rate                                   115772                       # Simulator op (including micro ops) rate (op/s)
host_tick_rate                               23534309                       # Simulator tick rate (ticks/s)
host_mem_usage                                 697040                       # Number of bytes of host memory used
host_seconds                                  1015.29                       # Real time elapsed on the host
sim_insts                                   117542308                       # Number of instructions simulated
sim_ops                                     117542308                       # Number of ops (including micro ops) simulated
system.voltage_domain.voltage                       1                       # Voltage in Volts
system.clk_domain.clock                          1000                       # Clock period in ticks
system.mem_ctrls.bytes_read::cpu00.inst        180928                       # Number of bytes read from this memory
system.mem_ctrls.bytes_read::cpu00.data       3359232                       # Number of bytes read from this memory
system.mem_ctrls.bytes_read::cpu01.inst         55488                       # Number of bytes read from this memory
system.mem_ctrls.bytes_read::cpu01.data       2787264                       # Number of bytes read from this memory
system.mem_ctrls.bytes_read::cpu02.inst         12288                       # Number of bytes read from this memory
system.mem_ctrls.bytes_read::cpu02.data       2620224                       # Number of bytes read from this memory
system.mem_ctrls.bytes_read::cpu03.inst         17792                       # Number of bytes read from this memory
system.mem_ctrls.bytes_read::cpu03.data       2737856                       # Number of bytes read from this memory
system.mem_ctrls.bytes_read::cpu04.inst         28160                       # Number of bytes read from this memory
system.mem_ctrls.bytes_read::cpu04.data       2888704                       # Number of bytes read from this memory
system.mem_ctrls.bytes_read::cpu05.inst         19584                       # Number of bytes read from this memory
system.mem_ctrls.bytes_read::cpu05.data       2841472                       # Number of bytes read from this memory
system.mem_ctrls.bytes_read::cpu06.inst         21888                       # Number of bytes read from this memory
system.mem_ctrls.bytes_read::cpu06.data       2668672                       # Number of bytes read from this memory
system.mem_ctrls.bytes_read::cpu07.inst         16640                       # Number of bytes read from this memory
system.mem_ctrls.bytes_read::cpu07.data       2740864                       # Number of bytes read from this memory
system.mem_ctrls.bytes_read::cpu08.inst         25152                       # Number of bytes read from this memory
system.mem_ctrls.bytes_read::cpu08.data       2963840                       # Number of bytes read from this memory
system.mem_ctrls.bytes_read::cpu09.inst         16896                       # Number of bytes read from this memory
system.mem_ctrls.bytes_read::cpu09.data       2912768                       # Number of bytes read from this memory
system.mem_ctrls.bytes_read::cpu10.inst         12224                       # Number of bytes read from this memory
system.mem_ctrls.bytes_read::cpu10.data       2837184                       # Number of bytes read from this memory
system.mem_ctrls.bytes_read::cpu11.inst         15680                       # Number of bytes read from this memory
system.mem_ctrls.bytes_read::cpu11.data       2873984                       # Number of bytes read from this memory
system.mem_ctrls.bytes_read::cpu12.inst         11456                       # Number of bytes read from this memory
system.mem_ctrls.bytes_read::cpu12.data       3039872                       # Number of bytes read from this memory
system.mem_ctrls.bytes_read::cpu13.inst         40320                       # Number of bytes read from this memory
system.mem_ctrls.bytes_read::cpu13.data       2980416                       # Number of bytes read from this memory
system.mem_ctrls.bytes_read::cpu14.inst         13952                       # Number of bytes read from this memory
system.mem_ctrls.bytes_read::cpu14.data       2845568                       # Number of bytes read from this memory
system.mem_ctrls.bytes_read::cpu15.inst         34688                       # Number of bytes read from this memory
system.mem_ctrls.bytes_read::cpu15.data       2869120                       # Number of bytes read from this memory
system.mem_ctrls.bytes_read::total           46490176                       # Number of bytes read from this memory
system.mem_ctrls.bytes_inst_read::cpu00.inst       180928                       # Number of instructions bytes read from this memory
system.mem_ctrls.bytes_inst_read::cpu01.inst        55488                       # Number of instructions bytes read from this memory
system.mem_ctrls.bytes_inst_read::cpu02.inst        12288                       # Number of instructions bytes read from this memory
system.mem_ctrls.bytes_inst_read::cpu03.inst        17792                       # Number of instructions bytes read from this memory
system.mem_ctrls.bytes_inst_read::cpu04.inst        28160                       # Number of instructions bytes read from this memory
system.mem_ctrls.bytes_inst_read::cpu05.inst        19584                       # Number of instructions bytes read from this memory
system.mem_ctrls.bytes_inst_read::cpu06.inst        21888                       # Number of instructions bytes read from this memory
system.mem_ctrls.bytes_inst_read::cpu07.inst        16640                       # Number of instructions bytes read from this memory
system.mem_ctrls.bytes_inst_read::cpu08.inst        25152                       # Number of instructions bytes read from this memory
system.mem_ctrls.bytes_inst_read::cpu09.inst        16896                       # Number of instructions bytes read from this memory
system.mem_ctrls.bytes_inst_read::cpu10.inst        12224                       # Number of instructions bytes read from this memory
system.mem_ctrls.bytes_inst_read::cpu11.inst        15680                       # Number of instructions bytes read from this memory
system.mem_ctrls.bytes_inst_read::cpu12.inst        11456                       # Number of instructions bytes read from this memory
system.mem_ctrls.bytes_inst_read::cpu13.inst        40320                       # Number of instructions bytes read from this memory
system.mem_ctrls.bytes_inst_read::cpu14.inst        13952                       # Number of instructions bytes read from this memory
system.mem_ctrls.bytes_inst_read::cpu15.inst        34688                       # Number of instructions bytes read from this memory
system.mem_ctrls.bytes_inst_read::total        523136                       # Number of instructions bytes read from this memory
system.mem_ctrls.bytes_written::writebacks     32603456                       # Number of bytes written to this memory
system.mem_ctrls.bytes_written::total        32603456                       # Number of bytes written to this memory
system.mem_ctrls.num_reads::cpu00.inst           2827                       # Number of read requests responded to by this memory
system.mem_ctrls.num_reads::cpu00.data          52488                       # Number of read requests responded to by this memory
system.mem_ctrls.num_reads::cpu01.inst            867                       # Number of read requests responded to by this memory
system.mem_ctrls.num_reads::cpu01.data          43551                       # Number of read requests responded to by this memory
system.mem_ctrls.num_reads::cpu02.inst            192                       # Number of read requests responded to by this memory
system.mem_ctrls.num_reads::cpu02.data          40941                       # Number of read requests responded to by this memory
system.mem_ctrls.num_reads::cpu03.inst            278                       # Number of read requests responded to by this memory
system.mem_ctrls.num_reads::cpu03.data          42779                       # Number of read requests responded to by this memory
system.mem_ctrls.num_reads::cpu04.inst            440                       # Number of read requests responded to by this memory
system.mem_ctrls.num_reads::cpu04.data          45136                       # Number of read requests responded to by this memory
system.mem_ctrls.num_reads::cpu05.inst            306                       # Number of read requests responded to by this memory
system.mem_ctrls.num_reads::cpu05.data          44398                       # Number of read requests responded to by this memory
system.mem_ctrls.num_reads::cpu06.inst            342                       # Number of read requests responded to by this memory
system.mem_ctrls.num_reads::cpu06.data          41698                       # Number of read requests responded to by this memory
system.mem_ctrls.num_reads::cpu07.inst            260                       # Number of read requests responded to by this memory
system.mem_ctrls.num_reads::cpu07.data          42826                       # Number of read requests responded to by this memory
system.mem_ctrls.num_reads::cpu08.inst            393                       # Number of read requests responded to by this memory
system.mem_ctrls.num_reads::cpu08.data          46310                       # Number of read requests responded to by this memory
system.mem_ctrls.num_reads::cpu09.inst            264                       # Number of read requests responded to by this memory
system.mem_ctrls.num_reads::cpu09.data          45512                       # Number of read requests responded to by this memory
system.mem_ctrls.num_reads::cpu10.inst            191                       # Number of read requests responded to by this memory
system.mem_ctrls.num_reads::cpu10.data          44331                       # Number of read requests responded to by this memory
system.mem_ctrls.num_reads::cpu11.inst            245                       # Number of read requests responded to by this memory
system.mem_ctrls.num_reads::cpu11.data          44906                       # Number of read requests responded to by this memory
system.mem_ctrls.num_reads::cpu12.inst            179                       # Number of read requests responded to by this memory
system.mem_ctrls.num_reads::cpu12.data          47498                       # Number of read requests responded to by this memory
system.mem_ctrls.num_reads::cpu13.inst            630                       # Number of read requests responded to by this memory
system.mem_ctrls.num_reads::cpu13.data          46569                       # Number of read requests responded to by this memory
system.mem_ctrls.num_reads::cpu14.inst            218                       # Number of read requests responded to by this memory
system.mem_ctrls.num_reads::cpu14.data          44462                       # Number of read requests responded to by this memory
system.mem_ctrls.num_reads::cpu15.inst            542                       # Number of read requests responded to by this memory
system.mem_ctrls.num_reads::cpu15.data          44830                       # Number of read requests responded to by this memory
system.mem_ctrls.num_reads::total              726409                       # Number of read requests responded to by this memory
system.mem_ctrls.num_writes::writebacks        509429                       # Number of write requests responded to by this memory
system.mem_ctrls.num_writes::total             509429                       # Number of write requests responded to by this memory
system.mem_ctrls.bw_read::cpu00.inst          7572055                       # Total read bandwidth from this memory (bytes/s)
system.mem_ctrls.bw_read::cpu00.data        140587903                       # Total read bandwidth from this memory (bytes/s)
system.mem_ctrls.bw_read::cpu01.inst          2322240                       # Total read bandwidth from this memory (bytes/s)
system.mem_ctrls.bw_read::cpu01.data        116650354                       # Total read bandwidth from this memory (bytes/s)
system.mem_ctrls.bw_read::cpu02.inst           514268                       # Total read bandwidth from this memory (bytes/s)
system.mem_ctrls.bw_read::cpu02.data        109659529                       # Total read bandwidth from this memory (bytes/s)
system.mem_ctrls.bw_read::cpu03.inst           744617                       # Total read bandwidth from this memory (bytes/s)
system.mem_ctrls.bw_read::cpu03.data        114582569                       # Total read bandwidth from this memory (bytes/s)
system.mem_ctrls.bw_read::cpu04.inst          1178530                       # Total read bandwidth from this memory (bytes/s)
system.mem_ctrls.bw_read::cpu04.data        120895740                       # Total read bandwidth from this memory (bytes/s)
system.mem_ctrls.bw_read::cpu05.inst           819614                       # Total read bandwidth from this memory (bytes/s)
system.mem_ctrls.bw_read::cpu05.data        118919024                       # Total read bandwidth from this memory (bytes/s)
system.mem_ctrls.bw_read::cpu06.inst           916039                       # Total read bandwidth from this memory (bytes/s)
system.mem_ctrls.bw_read::cpu06.data        111687136                       # Total read bandwidth from this memory (bytes/s)
system.mem_ctrls.bw_read::cpu07.inst           696404                       # Total read bandwidth from this memory (bytes/s)
system.mem_ctrls.bw_read::cpu07.data        114708458                       # Total read bandwidth from this memory (bytes/s)
system.mem_ctrls.bw_read::cpu08.inst          1052641                       # Total read bandwidth from this memory (bytes/s)
system.mem_ctrls.bw_read::cpu08.data        124040272                       # Total read bandwidth from this memory (bytes/s)
system.mem_ctrls.bw_read::cpu09.inst           707118                       # Total read bandwidth from this memory (bytes/s)
system.mem_ctrls.bw_read::cpu09.data        121902847                       # Total read bandwidth from this memory (bytes/s)
system.mem_ctrls.bw_read::cpu10.inst           511589                       # Total read bandwidth from this memory (bytes/s)
system.mem_ctrls.bw_read::cpu10.data        118739566                       # Total read bandwidth from this memory (bytes/s)
system.mem_ctrls.bw_read::cpu11.inst           656227                       # Total read bandwidth from this memory (bytes/s)
system.mem_ctrls.bw_read::cpu11.data        120279690                       # Total read bandwidth from this memory (bytes/s)
system.mem_ctrls.bw_read::cpu12.inst           479447                       # Total read bandwidth from this memory (bytes/s)
system.mem_ctrls.bw_read::cpu12.data        127222303                       # Total read bandwidth from this memory (bytes/s)
system.mem_ctrls.bw_read::cpu13.inst          1687441                       # Total read bandwidth from this memory (bytes/s)
system.mem_ctrls.bw_read::cpu13.data        124733997                       # Total read bandwidth from this memory (bytes/s)
system.mem_ctrls.bw_read::cpu14.inst           583908                       # Total read bandwidth from this memory (bytes/s)
system.mem_ctrls.bw_read::cpu14.data        119090446                       # Total read bandwidth from this memory (bytes/s)
system.mem_ctrls.bw_read::cpu15.inst          1451735                       # Total read bandwidth from this memory (bytes/s)
system.mem_ctrls.bw_read::cpu15.data        120076126                       # Total read bandwidth from this memory (bytes/s)
system.mem_ctrls.bw_read::total            1945669831                       # Total read bandwidth from this memory (bytes/s)
system.mem_ctrls.bw_inst_read::cpu00.inst      7572055                       # Instruction read bandwidth from this memory (bytes/s)
system.mem_ctrls.bw_inst_read::cpu01.inst      2322240                       # Instruction read bandwidth from this memory (bytes/s)
system.mem_ctrls.bw_inst_read::cpu02.inst       514268                       # Instruction read bandwidth from this memory (bytes/s)
system.mem_ctrls.bw_inst_read::cpu03.inst       744617                       # Instruction read bandwidth from this memory (bytes/s)
system.mem_ctrls.bw_inst_read::cpu04.inst      1178530                       # Instruction read bandwidth from this memory (bytes/s)
system.mem_ctrls.bw_inst_read::cpu05.inst       819614                       # Instruction read bandwidth from this memory (bytes/s)
system.mem_ctrls.bw_inst_read::cpu06.inst       916039                       # Instruction read bandwidth from this memory (bytes/s)
system.mem_ctrls.bw_inst_read::cpu07.inst       696404                       # Instruction read bandwidth from this memory (bytes/s)
system.mem_ctrls.bw_inst_read::cpu08.inst      1052641                       # Instruction read bandwidth from this memory (bytes/s)
system.mem_ctrls.bw_inst_read::cpu09.inst       707118                       # Instruction read bandwidth from this memory (bytes/s)
system.mem_ctrls.bw_inst_read::cpu10.inst       511589                       # Instruction read bandwidth from this memory (bytes/s)
system.mem_ctrls.bw_inst_read::cpu11.inst       656227                       # Instruction read bandwidth from this memory (bytes/s)
system.mem_ctrls.bw_inst_read::cpu12.inst       479447                       # Instruction read bandwidth from this memory (bytes/s)
system.mem_ctrls.bw_inst_read::cpu13.inst      1687441                       # Instruction read bandwidth from this memory (bytes/s)
system.mem_ctrls.bw_inst_read::cpu14.inst       583908                       # Instruction read bandwidth from this memory (bytes/s)
system.mem_ctrls.bw_inst_read::cpu15.inst      1451735                       # Instruction read bandwidth from this memory (bytes/s)
system.mem_ctrls.bw_inst_read::total         21893871                       # Instruction read bandwidth from this memory (bytes/s)
system.mem_ctrls.bw_write::writebacks      1364493882                       # Write bandwidth from this memory (bytes/s)
system.mem_ctrls.bw_write::total           1364493882                       # Write bandwidth from this memory (bytes/s)
system.mem_ctrls.bw_total::writebacks      1364493882                       # Total bandwidth to/from this memory (bytes/s)
system.mem_ctrls.bw_total::cpu00.inst         7572055                       # Total bandwidth to/from this memory (bytes/s)
system.mem_ctrls.bw_total::cpu00.data       140587903                       # Total bandwidth to/from this memory (bytes/s)
system.mem_ctrls.bw_total::cpu01.inst         2322240                       # Total bandwidth to/from this memory (bytes/s)
system.mem_ctrls.bw_total::cpu01.data       116650354                       # Total bandwidth to/from this memory (bytes/s)
system.mem_ctrls.bw_total::cpu02.inst          514268                       # Total bandwidth to/from this memory (bytes/s)
system.mem_ctrls.bw_total::cpu02.data       109659529                       # Total bandwidth to/from this memory (bytes/s)
system.mem_ctrls.bw_total::cpu03.inst          744617                       # Total bandwidth to/from this memory (bytes/s)
system.mem_ctrls.bw_total::cpu03.data       114582569                       # Total bandwidth to/from this memory (bytes/s)
system.mem_ctrls.bw_total::cpu04.inst         1178530                       # Total bandwidth to/from this memory (bytes/s)
system.mem_ctrls.bw_total::cpu04.data       120895740                       # Total bandwidth to/from this memory (bytes/s)
system.mem_ctrls.bw_total::cpu05.inst          819614                       # Total bandwidth to/from this memory (bytes/s)
system.mem_ctrls.bw_total::cpu05.data       118919024                       # Total bandwidth to/from this memory (bytes/s)
system.mem_ctrls.bw_total::cpu06.inst          916039                       # Total bandwidth to/from this memory (bytes/s)
system.mem_ctrls.bw_total::cpu06.data       111687136                       # Total bandwidth to/from this memory (bytes/s)
system.mem_ctrls.bw_total::cpu07.inst          696404                       # Total bandwidth to/from this memory (bytes/s)
system.mem_ctrls.bw_total::cpu07.data       114708458                       # Total bandwidth to/from this memory (bytes/s)
system.mem_ctrls.bw_total::cpu08.inst         1052641                       # Total bandwidth to/from this memory (bytes/s)
system.mem_ctrls.bw_total::cpu08.data       124040272                       # Total bandwidth to/from this memory (bytes/s)
system.mem_ctrls.bw_total::cpu09.inst          707118                       # Total bandwidth to/from this memory (bytes/s)
system.mem_ctrls.bw_total::cpu09.data       121902847                       # Total bandwidth to/from this memory (bytes/s)
system.mem_ctrls.bw_total::cpu10.inst          511589                       # Total bandwidth to/from this memory (bytes/s)
system.mem_ctrls.bw_total::cpu10.data       118739566                       # Total bandwidth to/from this memory (bytes/s)
system.mem_ctrls.bw_total::cpu11.inst          656227                       # Total bandwidth to/from this memory (bytes/s)
system.mem_ctrls.bw_total::cpu11.data       120279690                       # Total bandwidth to/from this memory (bytes/s)
system.mem_ctrls.bw_total::cpu12.inst          479447                       # Total bandwidth to/from this memory (bytes/s)
system.mem_ctrls.bw_total::cpu12.data       127222303                       # Total bandwidth to/from this memory (bytes/s)
system.mem_ctrls.bw_total::cpu13.inst         1687441                       # Total bandwidth to/from this memory (bytes/s)
system.mem_ctrls.bw_total::cpu13.data       124733997                       # Total bandwidth to/from this memory (bytes/s)
system.mem_ctrls.bw_total::cpu14.inst          583908                       # Total bandwidth to/from this memory (bytes/s)
system.mem_ctrls.bw_total::cpu14.data       119090446                       # Total bandwidth to/from this memory (bytes/s)
system.mem_ctrls.bw_total::cpu15.inst         1451735                       # Total bandwidth to/from this memory (bytes/s)
system.mem_ctrls.bw_total::cpu15.data       120076126                       # Total bandwidth to/from this memory (bytes/s)
system.mem_ctrls.bw_total::total           3310163714                       # Total bandwidth to/from this memory (bytes/s)
system.cpu00.branchPred.lookups                583212                       # Number of BP lookups
system.cpu00.branchPred.condPredicted          467642                       # Number of conditional branches predicted
system.cpu00.branchPred.condIncorrect           11355                       # Number of conditional branches incorrect
system.cpu00.branchPred.BTBLookups             383520                       # Number of BTB lookups
system.cpu00.branchPred.BTBHits                272792                       # Number of BTB hits
system.cpu00.branchPred.BTBCorrect                  0                       # Number of correct BTB predictions (this stat may not work properly.
system.cpu00.branchPred.BTBHitPct           71.128494                       # BTB Hit Percentage
system.cpu00.branchPred.usedRAS                 45342                       # Number of times the RAS was used to get a target.
system.cpu00.branchPred.RASInCorrect               82                       # Number of incorrect RAS predictions.
system.cpu00.branchPred.indirectLookups          8841                       # Number of indirect predictor lookups.
system.cpu00.branchPred.indirectHits             7979                       # Number of indirect target hits.
system.cpu00.branchPred.indirectMisses            862                       # Number of indirect misses.
system.cpu00.branchPredindirectMispredicted          261                       # Number of mispredicted indirect branches.
system.cpu_voltage_domain.voltage                   1                       # Voltage in Volts
system.cpu_clk_domain.clock                      1161                       # Clock period in ticks
system.cpu00.dtb.fetch_hits                         0                       # ITB hits
system.cpu00.dtb.fetch_misses                       0                       # ITB misses
system.cpu00.dtb.fetch_acv                          0                       # ITB acv
system.cpu00.dtb.fetch_accesses                     0                       # ITB accesses
system.cpu00.dtb.read_hits                    5841467                       # DTB read hits
system.cpu00.dtb.read_misses                     8518                       # DTB read misses
system.cpu00.dtb.read_acv                           5                       # DTB read access violations
system.cpu00.dtb.read_accesses                5849985                       # DTB read accesses
system.cpu00.dtb.write_hits                    649591                       # DTB write hits
system.cpu00.dtb.write_misses                   10183                       # DTB write misses
system.cpu00.dtb.write_acv                          0                       # DTB write access violations
system.cpu00.dtb.write_accesses                659774                       # DTB write accesses
system.cpu00.dtb.data_hits                    6491058                       # DTB hits
system.cpu00.dtb.data_misses                    18701                       # DTB misses
system.cpu00.dtb.data_acv                           5                       # DTB access violations
system.cpu00.dtb.data_accesses                6509759                       # DTB accesses
system.cpu00.itb.fetch_hits                    840354                       # ITB hits
system.cpu00.itb.fetch_misses                     247                       # ITB misses
system.cpu00.itb.fetch_acv                          0                       # ITB acv
system.cpu00.itb.fetch_accesses                840601                       # ITB accesses
system.cpu00.itb.read_hits                          0                       # DTB read hits
system.cpu00.itb.read_misses                        0                       # DTB read misses
system.cpu00.itb.read_acv                           0                       # DTB read access violations
system.cpu00.itb.read_accesses                      0                       # DTB read accesses
system.cpu00.itb.write_hits                         0                       # DTB write hits
system.cpu00.itb.write_misses                       0                       # DTB write misses
system.cpu00.itb.write_acv                          0                       # DTB write access violations
system.cpu00.itb.write_accesses                     0                       # DTB write accesses
system.cpu00.itb.data_hits                          0                       # DTB hits
system.cpu00.itb.data_misses                        0                       # DTB misses
system.cpu00.itb.data_acv                           0                       # DTB access violations
system.cpu00.itb.data_accesses                      0                       # DTB accesses
system.cpu00.workload.num_syscalls              66236                       # Number of system calls
system.cpu00.numCycles                       19491879                       # number of cpu cycles simulated
system.cpu00.numWorkItemsStarted                    0                       # number of work items this cpu started
system.cpu00.numWorkItemsCompleted                  0                       # number of work items this cpu completed
system.cpu00.fetch.icacheStallCycles           213204                       # Number of cycles fetch is stalled on an Icache miss
system.cpu00.fetch.Insts                      9331182                       # Number of instructions fetch has processed
system.cpu00.fetch.Branches                    583212                       # Number of branches that fetch encountered
system.cpu00.fetch.predictedBranches           326113                       # Number of branches that fetch has predicted taken
system.cpu00.fetch.Cycles                    18817429                       # Number of cycles fetch has run and was not squashing or blocked
system.cpu00.fetch.SquashCycles                 29902                       # Number of cycles fetch has spent squashing
system.cpu00.fetch.MiscStallCycles                945                       # Number of cycles fetch has spent waiting on interrupts, or bad addresses, or out of MSHRs
system.cpu00.fetch.PendingTrapStallCycles        10254                       # Number of stall cycles due to pending traps
system.cpu00.fetch.IcacheWaitRetryStallCycles         2019                       # Number of stall cycles due to full MSHR
system.cpu00.fetch.CacheLines                  840354                       # Number of cache lines fetched
system.cpu00.fetch.IcacheSquashes                3837                       # Number of outstanding Icache misses that were squashed
system.cpu00.fetch.rateDist::samples         19058802                       # Number of instructions fetched each cycle (Total)
system.cpu00.fetch.rateDist::mean            0.489600                       # Number of instructions fetched each cycle (Total)
system.cpu00.fetch.rateDist::stdev           1.770265                       # Number of instructions fetched each cycle (Total)
system.cpu00.fetch.rateDist::underflows             0      0.00%      0.00% # Number of instructions fetched each cycle (Total)
system.cpu00.fetch.rateDist::0               17453422     91.58%     91.58% # Number of instructions fetched each cycle (Total)
system.cpu00.fetch.rateDist::1                 121609      0.64%     92.21% # Number of instructions fetched each cycle (Total)
system.cpu00.fetch.rateDist::2                 131616      0.69%     92.91% # Number of instructions fetched each cycle (Total)
system.cpu00.fetch.rateDist::3                 120917      0.63%     93.54% # Number of instructions fetched each cycle (Total)
system.cpu00.fetch.rateDist::4                 157386      0.83%     94.37% # Number of instructions fetched each cycle (Total)
system.cpu00.fetch.rateDist::5                 108511      0.57%     94.93% # Number of instructions fetched each cycle (Total)
system.cpu00.fetch.rateDist::6                 107584      0.56%     95.50% # Number of instructions fetched each cycle (Total)
system.cpu00.fetch.rateDist::7                  96069      0.50%     96.00% # Number of instructions fetched each cycle (Total)
system.cpu00.fetch.rateDist::8                 761688      4.00%    100.00% # Number of instructions fetched each cycle (Total)
system.cpu00.fetch.rateDist::overflows              0      0.00%    100.00% # Number of instructions fetched each cycle (Total)
system.cpu00.fetch.rateDist::min_value              0                       # Number of instructions fetched each cycle (Total)
system.cpu00.fetch.rateDist::max_value              8                       # Number of instructions fetched each cycle (Total)
system.cpu00.fetch.rateDist::total           19058802                       # Number of instructions fetched each cycle (Total)
system.cpu00.fetch.branchRate                0.029921                       # Number of branch fetches per cycle
system.cpu00.fetch.rate                      0.478722                       # Number of inst fetches per cycle
system.cpu00.decode.IdleCycles                 384568                       # Number of cycles decode is idle
system.cpu00.decode.BlockedCycles            17491598                       # Number of cycles decode is blocked
system.cpu00.decode.RunCycles                  622172                       # Number of cycles decode is running
system.cpu00.decode.UnblockCycles              548072                       # Number of cycles decode is unblocking
system.cpu00.decode.SquashCycles                12392                       # Number of cycles decode is squashing
system.cpu00.decode.BranchResolved              54990                       # Number of times decode resolved a branch
system.cpu00.decode.BranchMispred                2625                       # Number of times decode detected a branch misprediction
system.cpu00.decode.DecodedInsts              9026785                       # Number of instructions handled by decode
system.cpu00.decode.SquashedInsts               10382                       # Number of squashed instructions handled by decode
system.cpu00.rename.SquashCycles                12392                       # Number of cycles rename is squashing
system.cpu00.rename.IdleCycles                 573043                       # Number of cycles rename is idle
system.cpu00.rename.BlockCycles              11545987                       # Number of cycles rename is blocking
system.cpu00.rename.serializeStallCycles       812017                       # count of cycles rename stalled for serializing inst
system.cpu00.rename.RunCycles                  916413                       # Number of cycles rename is running
system.cpu00.rename.UnblockCycles             5198950                       # Number of cycles rename is unblocking
system.cpu00.rename.RenamedInsts              8953193                       # Number of instructions processed by rename
system.cpu00.rename.ROBFullEvents                4409                       # Number of times rename has blocked due to ROB full
system.cpu00.rename.IQFullEvents              1469799                       # Number of times rename has blocked due to IQ full
system.cpu00.rename.LQFullEvents              2765697                       # Number of times rename has blocked due to LQ full
system.cpu00.rename.SQFullEvents              1335154                       # Number of times rename has blocked due to SQ full
system.cpu00.rename.RenamedOperands           7169669                       # Number of destination operands rename has renamed
system.cpu00.rename.RenameLookups            13245852                       # Number of register rename lookups that rename has made
system.cpu00.rename.int_rename_lookups        6920035                       # Number of integer rename lookups
system.cpu00.rename.fp_rename_lookups         6324446                       # Number of floating rename lookups
system.cpu00.rename.CommittedMaps             6840686                       # Number of HB maps that are committed
system.cpu00.rename.UndoneMaps                 328983                       # Number of HB maps that are undone due to squashing
system.cpu00.rename.serializingInsts            14460                       # count of serializing insts renamed
system.cpu00.rename.tempSerializingInsts        13029                       # count of temporary serializing insts renamed
system.cpu00.rename.skidInsts                 3356687                       # count of insts added to the skid buffer
system.cpu00.memDep0.insertedLoads            2315957                       # Number of loads inserted to the mem dependence unit.
system.cpu00.memDep0.insertedStores            690186                       # Number of stores inserted to the mem dependence unit.
system.cpu00.memDep0.conflictingLoads           91375                       # Number of conflicting loads.
system.cpu00.memDep0.conflictingStores          68826                       # Number of conflicting stores.
system.cpu00.iq.iqInstsAdded                  8734131                       # Number of instructions added to the IQ (excludes non-spec)
system.cpu00.iq.iqNonSpecInstsAdded             19524                       # Number of non-speculative instructions added to the IQ
system.cpu00.iq.iqInstsIssued                12188385                       # Number of instructions issued
system.cpu00.iq.iqSquashedInstsIssued            8776                       # Number of squashed instructions issued
system.cpu00.iq.iqSquashedInstsExamined        414463                       # Number of squashed instructions iterated over during squash; mainly for profiling
system.cpu00.iq.iqSquashedOperandsExamined       248531                       # Number of squashed operands that are examined and possibly removed from graph
system.cpu00.iq.iqSquashedNonSpecRemoved         2645                       # Number of squashed non-spec instructions that were removed
system.cpu00.iq.issued_per_cycle::samples     19058802                       # Number of insts issued each cycle
system.cpu00.iq.issued_per_cycle::mean       0.639515                       # Number of insts issued each cycle
system.cpu00.iq.issued_per_cycle::stdev      1.480467                       # Number of insts issued each cycle
system.cpu00.iq.issued_per_cycle::underflows            0      0.00%      0.00% # Number of insts issued each cycle
system.cpu00.iq.issued_per_cycle::0          14879265     78.07%     78.07% # Number of insts issued each cycle
system.cpu00.iq.issued_per_cycle::1           1325175      6.95%     85.02% # Number of insts issued each cycle
system.cpu00.iq.issued_per_cycle::2            755828      3.97%     88.99% # Number of insts issued each cycle
system.cpu00.iq.issued_per_cycle::3            420665      2.21%     91.20% # Number of insts issued each cycle
system.cpu00.iq.issued_per_cycle::4            982319      5.15%     96.35% # Number of insts issued each cycle
system.cpu00.iq.issued_per_cycle::5            317795      1.67%     98.02% # Number of insts issued each cycle
system.cpu00.iq.issued_per_cycle::6            177800      0.93%     98.95% # Number of insts issued each cycle
system.cpu00.iq.issued_per_cycle::7             95132      0.50%     99.45% # Number of insts issued each cycle
system.cpu00.iq.issued_per_cycle::8            104823      0.55%    100.00% # Number of insts issued each cycle
system.cpu00.iq.issued_per_cycle::overflows            0      0.00%    100.00% # Number of insts issued each cycle
system.cpu00.iq.issued_per_cycle::min_value            0                       # Number of insts issued each cycle
system.cpu00.iq.issued_per_cycle::max_value            8                       # Number of insts issued each cycle
system.cpu00.iq.issued_per_cycle::total      19058802                       # Number of insts issued each cycle
system.cpu00.iq.fu_full::No_OpClass                 0      0.00%      0.00% # attempts to use FU when none available
system.cpu00.iq.fu_full::IntAlu                  9976      0.96%      0.96% # attempts to use FU when none available
system.cpu00.iq.fu_full::IntMult                    0      0.00%      0.96% # attempts to use FU when none available
system.cpu00.iq.fu_full::IntDiv                     0      0.00%      0.96% # attempts to use FU when none available
system.cpu00.iq.fu_full::FloatAdd               56426      5.45%      6.42% # attempts to use FU when none available
system.cpu00.iq.fu_full::FloatCmp                   0      0.00%      6.42% # attempts to use FU when none available
system.cpu00.iq.fu_full::FloatCvt                   0      0.00%      6.42% # attempts to use FU when none available
system.cpu00.iq.fu_full::FloatMult              90222      8.72%     15.14% # attempts to use FU when none available
system.cpu00.iq.fu_full::FloatDiv                  46      0.00%     15.14% # attempts to use FU when none available
system.cpu00.iq.fu_full::FloatSqrt                  0      0.00%     15.14% # attempts to use FU when none available
system.cpu00.iq.fu_full::SimdAdd                    0      0.00%     15.14% # attempts to use FU when none available
system.cpu00.iq.fu_full::SimdAddAcc                 0      0.00%     15.14% # attempts to use FU when none available
system.cpu00.iq.fu_full::SimdAlu                    0      0.00%     15.14% # attempts to use FU when none available
system.cpu00.iq.fu_full::SimdCmp                    0      0.00%     15.14% # attempts to use FU when none available
system.cpu00.iq.fu_full::SimdCvt                    0      0.00%     15.14% # attempts to use FU when none available
system.cpu00.iq.fu_full::SimdMisc                   0      0.00%     15.14% # attempts to use FU when none available
system.cpu00.iq.fu_full::SimdMult                   0      0.00%     15.14% # attempts to use FU when none available
system.cpu00.iq.fu_full::SimdMultAcc                0      0.00%     15.14% # attempts to use FU when none available
system.cpu00.iq.fu_full::SimdShift                  0      0.00%     15.14% # attempts to use FU when none available
system.cpu00.iq.fu_full::SimdShiftAcc               0      0.00%     15.14% # attempts to use FU when none available
system.cpu00.iq.fu_full::SimdSqrt                   0      0.00%     15.14% # attempts to use FU when none available
system.cpu00.iq.fu_full::SimdFloatAdd               0      0.00%     15.14% # attempts to use FU when none available
system.cpu00.iq.fu_full::SimdFloatAlu               0      0.00%     15.14% # attempts to use FU when none available
system.cpu00.iq.fu_full::SimdFloatCmp               0      0.00%     15.14% # attempts to use FU when none available
system.cpu00.iq.fu_full::SimdFloatCvt               0      0.00%     15.14% # attempts to use FU when none available
system.cpu00.iq.fu_full::SimdFloatDiv               0      0.00%     15.14% # attempts to use FU when none available
system.cpu00.iq.fu_full::SimdFloatMisc              0      0.00%     15.14% # attempts to use FU when none available
system.cpu00.iq.fu_full::SimdFloatMult              0      0.00%     15.14% # attempts to use FU when none available
system.cpu00.iq.fu_full::SimdFloatMultAcc            0      0.00%     15.14% # attempts to use FU when none available
system.cpu00.iq.fu_full::SimdFloatSqrt              0      0.00%     15.14% # attempts to use FU when none available
system.cpu00.iq.fu_full::MemRead               853813     82.52%     97.66% # attempts to use FU when none available
system.cpu00.iq.fu_full::MemWrite               24191      2.34%    100.00% # attempts to use FU when none available
system.cpu00.iq.fu_full::IprAccess                  0      0.00%    100.00% # attempts to use FU when none available
system.cpu00.iq.fu_full::InstPrefetch               0      0.00%    100.00% # attempts to use FU when none available
system.cpu00.iq.FU_type_0::No_OpClass               0      0.00%      0.00% # Type of FU issued
system.cpu00.iq.FU_type_0::IntAlu             2661343     21.84%     21.84% # Type of FU issued
system.cpu00.iq.FU_type_0::IntMult                905      0.01%     21.84% # Type of FU issued
system.cpu00.iq.FU_type_0::IntDiv                   0      0.00%     21.84% # Type of FU issued
system.cpu00.iq.FU_type_0::FloatAdd           2140157     17.56%     39.40% # Type of FU issued
system.cpu00.iq.FU_type_0::FloatCmp            114812      0.94%     40.34% # Type of FU issued
system.cpu00.iq.FU_type_0::FloatCvt                 0      0.00%     40.34% # Type of FU issued
system.cpu00.iq.FU_type_0::FloatMult           738404      6.06%     46.40% # Type of FU issued
system.cpu00.iq.FU_type_0::FloatDiv              9051      0.07%     46.48% # Type of FU issued
system.cpu00.iq.FU_type_0::FloatSqrt                0      0.00%     46.48% # Type of FU issued
system.cpu00.iq.FU_type_0::SimdAdd                  0      0.00%     46.48% # Type of FU issued
system.cpu00.iq.FU_type_0::SimdAddAcc               0      0.00%     46.48% # Type of FU issued
system.cpu00.iq.FU_type_0::SimdAlu                  0      0.00%     46.48% # Type of FU issued
system.cpu00.iq.FU_type_0::SimdCmp                  0      0.00%     46.48% # Type of FU issued
system.cpu00.iq.FU_type_0::SimdCvt                  0      0.00%     46.48% # Type of FU issued
system.cpu00.iq.FU_type_0::SimdMisc                 0      0.00%     46.48% # Type of FU issued
system.cpu00.iq.FU_type_0::SimdMult                 0      0.00%     46.48% # Type of FU issued
system.cpu00.iq.FU_type_0::SimdMultAcc              0      0.00%     46.48% # Type of FU issued
system.cpu00.iq.FU_type_0::SimdShift                0      0.00%     46.48% # Type of FU issued
system.cpu00.iq.FU_type_0::SimdShiftAcc             0      0.00%     46.48% # Type of FU issued
system.cpu00.iq.FU_type_0::SimdSqrt                 0      0.00%     46.48% # Type of FU issued
system.cpu00.iq.FU_type_0::SimdFloatAdd             0      0.00%     46.48% # Type of FU issued
system.cpu00.iq.FU_type_0::SimdFloatAlu             0      0.00%     46.48% # Type of FU issued
system.cpu00.iq.FU_type_0::SimdFloatCmp             0      0.00%     46.48% # Type of FU issued
system.cpu00.iq.FU_type_0::SimdFloatCvt             0      0.00%     46.48% # Type of FU issued
system.cpu00.iq.FU_type_0::SimdFloatDiv             0      0.00%     46.48% # Type of FU issued
system.cpu00.iq.FU_type_0::SimdFloatMisc            0      0.00%     46.48% # Type of FU issued
system.cpu00.iq.FU_type_0::SimdFloatMult            0      0.00%     46.48% # Type of FU issued
system.cpu00.iq.FU_type_0::SimdFloatMultAcc            0      0.00%     46.48% # Type of FU issued
system.cpu00.iq.FU_type_0::SimdFloatSqrt            0      0.00%     46.48% # Type of FU issued
system.cpu00.iq.FU_type_0::MemRead            5861321     48.09%     94.57% # Type of FU issued
system.cpu00.iq.FU_type_0::MemWrite            662392      5.43%    100.00% # Type of FU issued
system.cpu00.iq.FU_type_0::IprAccess                0      0.00%    100.00% # Type of FU issued
system.cpu00.iq.FU_type_0::InstPrefetch             0      0.00%    100.00% # Type of FU issued
system.cpu00.iq.FU_type_0::total             12188385                       # Type of FU issued
system.cpu00.iq.rate                         0.625306                       # Inst issue rate
system.cpu00.iq.fu_busy_cnt                   1034674                       # FU busy when requested
system.cpu00.iq.fu_busy_rate                 0.084890                       # FU busy rate (busy events/executed inst)
system.cpu00.iq.int_inst_queue_reads         27065463                       # Number of integer instruction queue reads
system.cpu00.iq.int_inst_queue_writes         3797386                       # Number of integer instruction queue writes
system.cpu00.iq.int_inst_queue_wakeup_accesses      3299255                       # Number of integer instruction queue wakeup accesses
system.cpu00.iq.fp_inst_queue_reads          17413559                       # Number of floating instruction queue reads
system.cpu00.iq.fp_inst_queue_writes          5372458                       # Number of floating instruction queue writes
system.cpu00.iq.fp_inst_queue_wakeup_accesses      5272230                       # Number of floating instruction queue wakeup accesses
system.cpu00.iq.int_alu_accesses              4085797                       # Number of integer alu accesses
system.cpu00.iq.fp_alu_accesses               9137262                       # Number of floating point alu accesses
system.cpu00.iew.lsq.thread0.forwLoads          37302                       # Number of loads that had data forwarded from stores
system.cpu00.iew.lsq.thread0.invAddrLoads            0                       # Number of loads ignored due to an invalid address
system.cpu00.iew.lsq.thread0.squashedLoads        94972                       # Number of loads squashed
system.cpu00.iew.lsq.thread0.ignoredResponses          176                       # Number of memory responses ignored because the instruction is squashed
system.cpu00.iew.lsq.thread0.memOrderViolation         1760                       # Number of memory ordering violations
system.cpu00.iew.lsq.thread0.squashedStores        64278                       # Number of stores squashed
system.cpu00.iew.lsq.thread0.invAddrSwpfs            0                       # Number of software prefetches ignored due to an invalid address
system.cpu00.iew.lsq.thread0.blockedLoads            0                       # Number of blocked loads due to partial load-store forwarding
system.cpu00.iew.lsq.thread0.rescheduledLoads         1077                       # Number of loads that were rescheduled
system.cpu00.iew.lsq.thread0.cacheBlocked      3687643                       # Number of times an access to memory failed due to the cache being blocked
system.cpu00.iew.iewIdleCycles                      0                       # Number of cycles IEW is idle
system.cpu00.iew.iewSquashCycles                12392                       # Number of cycles IEW is squashing
system.cpu00.iew.iewBlockCycles               6876582                       # Number of cycles IEW is blocking
system.cpu00.iew.iewUnblockCycles             3743992                       # Number of cycles IEW is unblocking
system.cpu00.iew.iewDispatchedInsts           8897094                       # Number of instructions dispatched to IQ
system.cpu00.iew.iewDispSquashedInsts            2267                       # Number of squashed instructions skipped by dispatch
system.cpu00.iew.iewDispLoadInsts             2315957                       # Number of dispatched load instructions
system.cpu00.iew.iewDispStoreInsts             690186                       # Number of dispatched store instructions
system.cpu00.iew.iewDispNonSpecInsts            12807                       # Number of dispatched non-speculative instructions
system.cpu00.iew.iewIQFullEvents               118726                       # Number of times the IQ has become full, causing a stall
system.cpu00.iew.iewLSQFullEvents             3512116                       # Number of times the LSQ has become full, causing a stall
system.cpu00.iew.memOrderViolationEvents         1760                       # Number of memory order violations
system.cpu00.iew.predictedTakenIncorrect         4234                       # Number of branches that were predicted taken incorrectly
system.cpu00.iew.predictedNotTakenIncorrect         5812                       # Number of branches that were predicted not taken incorrectly
system.cpu00.iew.branchMispredicts              10046                       # Number of branch mispredicts detected at execute
system.cpu00.iew.iewExecutedInsts            12171869                       # Number of executed instructions
system.cpu00.iew.iewExecLoadInsts             5850016                       # Number of load instructions executed
system.cpu00.iew.iewExecSquashedInsts           16516                       # Number of squashed instructions skipped in execute
system.cpu00.iew.exec_swp                           0                       # number of swp insts executed
system.cpu00.iew.exec_nop                      143439                       # number of nop insts executed
system.cpu00.iew.exec_refs                    6509808                       # number of memory reference insts executed
system.cpu00.iew.exec_branches                 499091                       # Number of branches executed
system.cpu00.iew.exec_stores                   659792                       # Number of stores executed
system.cpu00.iew.exec_rate                   0.624458                       # Inst execution rate
system.cpu00.iew.wb_sent                      8594386                       # cumulative count of insts sent to commit
system.cpu00.iew.wb_count                     8571485                       # cumulative count of insts written-back
system.cpu00.iew.wb_producers                 5814645                       # num instructions producing a value
system.cpu00.iew.wb_consumers                 7328990                       # num instructions consuming a value
system.cpu00.iew.wb_rate                     0.439746                       # insts written-back per cycle
system.cpu00.iew.wb_fanout                   0.793376                       # average fanout of values written-back
system.cpu00.commit.commitSquashedInsts        415441                       # The number of squashed insts skipped by commit
system.cpu00.commit.commitNonSpecStalls         16879                       # The number of times commit has been forced to stall to communicate backwards
system.cpu00.commit.branchMispredicts            8796                       # The number of times a branch was mispredicted
system.cpu00.commit.committed_per_cycle::samples     18995780                       # Number of insts commited each cycle
system.cpu00.commit.committed_per_cycle::mean     0.445825                       # Number of insts commited each cycle
system.cpu00.commit.committed_per_cycle::stdev     1.608252                       # Number of insts commited each cycle
system.cpu00.commit.committed_per_cycle::underflows            0      0.00%      0.00% # Number of insts commited each cycle
system.cpu00.commit.committed_per_cycle::0     17082553     89.93%     89.93% # Number of insts commited each cycle
system.cpu00.commit.committed_per_cycle::1       424965      2.24%     92.17% # Number of insts commited each cycle
system.cpu00.commit.committed_per_cycle::2       294135      1.55%     93.71% # Number of insts commited each cycle
system.cpu00.commit.committed_per_cycle::3       195401      1.03%     94.74% # Number of insts commited each cycle
system.cpu00.commit.committed_per_cycle::4       135518      0.71%     95.46% # Number of insts commited each cycle
system.cpu00.commit.committed_per_cycle::5       105159      0.55%     96.01% # Number of insts commited each cycle
system.cpu00.commit.committed_per_cycle::6        89406      0.47%     96.48% # Number of insts commited each cycle
system.cpu00.commit.committed_per_cycle::7        84096      0.44%     96.92% # Number of insts commited each cycle
system.cpu00.commit.committed_per_cycle::8       584547      3.08%    100.00% # Number of insts commited each cycle
system.cpu00.commit.committed_per_cycle::overflows            0      0.00%    100.00% # Number of insts commited each cycle
system.cpu00.commit.committed_per_cycle::min_value            0                       # Number of insts commited each cycle
system.cpu00.commit.committed_per_cycle::max_value            8                       # Number of insts commited each cycle
system.cpu00.commit.committed_per_cycle::total     18995780                       # Number of insts commited each cycle
system.cpu00.commit.committedInsts            8468789                       # Number of instructions committed
system.cpu00.commit.committedOps              8468789                       # Number of ops (including micro ops) committed
system.cpu00.commit.swp_count                       0                       # Number of s/w prefetches committed
system.cpu00.commit.refs                      2846893                       # Number of memory references committed
system.cpu00.commit.loads                     2220985                       # Number of loads committed
system.cpu00.commit.membars                      5494                       # Number of memory barriers committed
system.cpu00.commit.branches                   465675                       # Number of branches committed
system.cpu00.commit.fp_insts                  5254312                       # Number of committed floating point instructions.
system.cpu00.commit.int_insts                 5443569                       # Number of committed integer instructions.
system.cpu00.commit.function_calls              33948                       # Number of function calls committed.
system.cpu00.commit.op_class_0::No_OpClass       129598      1.53%      1.53% # Class of committed instruction
system.cpu00.commit.op_class_0::IntAlu        2494773     29.46%     30.99% # Class of committed instruction
system.cpu00.commit.op_class_0::IntMult           772      0.01%     31.00% # Class of committed instruction
system.cpu00.commit.op_class_0::IntDiv              0      0.00%     31.00% # Class of committed instruction
system.cpu00.commit.op_class_0::FloatAdd      2131333     25.17%     56.16% # Class of committed instruction
system.cpu00.commit.op_class_0::FloatCmp       114742      1.35%     57.52% # Class of committed instruction
system.cpu00.commit.op_class_0::FloatCvt            0      0.00%     57.52% # Class of committed instruction
system.cpu00.commit.op_class_0::FloatMult       736169      8.69%     66.21% # Class of committed instruction
system.cpu00.commit.op_class_0::FloatDiv         9014      0.11%     66.32% # Class of committed instruction
system.cpu00.commit.op_class_0::FloatSqrt            0      0.00%     66.32% # Class of committed instruction
system.cpu00.commit.op_class_0::SimdAdd             0      0.00%     66.32% # Class of committed instruction
system.cpu00.commit.op_class_0::SimdAddAcc            0      0.00%     66.32% # Class of committed instruction
system.cpu00.commit.op_class_0::SimdAlu             0      0.00%     66.32% # Class of committed instruction
system.cpu00.commit.op_class_0::SimdCmp             0      0.00%     66.32% # Class of committed instruction
system.cpu00.commit.op_class_0::SimdCvt             0      0.00%     66.32% # Class of committed instruction
system.cpu00.commit.op_class_0::SimdMisc            0      0.00%     66.32% # Class of committed instruction
system.cpu00.commit.op_class_0::SimdMult            0      0.00%     66.32% # Class of committed instruction
system.cpu00.commit.op_class_0::SimdMultAcc            0      0.00%     66.32% # Class of committed instruction
system.cpu00.commit.op_class_0::SimdShift            0      0.00%     66.32% # Class of committed instruction
system.cpu00.commit.op_class_0::SimdShiftAcc            0      0.00%     66.32% # Class of committed instruction
system.cpu00.commit.op_class_0::SimdSqrt            0      0.00%     66.32% # Class of committed instruction
system.cpu00.commit.op_class_0::SimdFloatAdd            0      0.00%     66.32% # Class of committed instruction
system.cpu00.commit.op_class_0::SimdFloatAlu            0      0.00%     66.32% # Class of committed instruction
system.cpu00.commit.op_class_0::SimdFloatCmp            0      0.00%     66.32% # Class of committed instruction
system.cpu00.commit.op_class_0::SimdFloatCvt            0      0.00%     66.32% # Class of committed instruction
system.cpu00.commit.op_class_0::SimdFloatDiv            0      0.00%     66.32% # Class of committed instruction
system.cpu00.commit.op_class_0::SimdFloatMisc            0      0.00%     66.32% # Class of committed instruction
system.cpu00.commit.op_class_0::SimdFloatMult            0      0.00%     66.32% # Class of committed instruction
system.cpu00.commit.op_class_0::SimdFloatMultAcc            0      0.00%     66.32% # Class of committed instruction
system.cpu00.commit.op_class_0::SimdFloatSqrt            0      0.00%     66.32% # Class of committed instruction
system.cpu00.commit.op_class_0::MemRead       2226479     26.29%     92.61% # Class of committed instruction
system.cpu00.commit.op_class_0::MemWrite       625909      7.39%    100.00% # Class of committed instruction
system.cpu00.commit.op_class_0::IprAccess            0      0.00%    100.00% # Class of committed instruction
system.cpu00.commit.op_class_0::InstPrefetch            0      0.00%    100.00% # Class of committed instruction
system.cpu00.commit.op_class_0::total         8468789                       # Class of committed instruction
system.cpu00.commit.bw_lim_events              584547                       # number cycles where commit BW limit reached
system.cpu00.rob.rob_reads                   27262014                       # The number of ROB reads
system.cpu00.rob.rob_writes                  17828967                       # The number of ROB writes
system.cpu00.timesIdled                          9290                       # Number of times that the entire CPU went into an idle state and unscheduled itself
system.cpu00.idleCycles                        433077                       # Total number of cycles that the CPU has spent unscheduled due to idling
system.cpu00.quiesceCycles                    1088807                       # Total number of cycles that CPU has spent quiesced or waiting for an interrupt
system.cpu00.committedInsts                   8339191                       # Number of Instructions Simulated
system.cpu00.committedOps                     8339191                       # Number of Ops (including micro ops) Simulated
system.cpu00.cpi                             2.337382                       # CPI: Cycles Per Instruction
system.cpu00.cpi_total                       2.337382                       # CPI: Total CPI of All Threads
system.cpu00.ipc                             0.427829                       # IPC: Instructions Per Cycle
system.cpu00.ipc_total                       0.427829                       # IPC: Total IPC of All Threads
system.cpu00.int_regfile_reads               10235577                       # number of integer regfile reads
system.cpu00.int_regfile_writes               2322847                       # number of integer regfile writes
system.cpu00.fp_regfile_reads                 6290811                       # number of floating regfile reads
system.cpu00.fp_regfile_writes                4702717                       # number of floating regfile writes
system.cpu00.misc_regfile_reads                 30504                       # number of misc regfile reads
system.cpu00.misc_regfile_writes                13949                       # number of misc regfile writes
system.cpu00.dcache.tags.replacements          337792                       # number of replacements
system.cpu00.dcache.tags.tagsinuse          63.552093                       # Cycle average of tags in use
system.cpu00.dcache.tags.total_refs           1770712                       # Total number of references to valid blocks.
system.cpu00.dcache.tags.sampled_refs          337856                       # Sample count of references to valid blocks.
system.cpu00.dcache.tags.avg_refs            5.241026                       # Average number of references to valid blocks.
system.cpu00.dcache.tags.warmup_cycle        71458389                       # Cycle when the warmup percentage was hit.
system.cpu00.dcache.tags.occ_blocks::cpu00.data    63.552093                       # Average occupied blocks per requestor
system.cpu00.dcache.tags.occ_percent::cpu00.data     0.993001                       # Average percentage of cache occupancy
system.cpu00.dcache.tags.occ_percent::total     0.993001                       # Average percentage of cache occupancy
system.cpu00.dcache.tags.occ_task_id_blocks::1024           64                       # Occupied blocks per task id
system.cpu00.dcache.tags.age_task_id_blocks_1024::0           47                       # Occupied blocks per task id
system.cpu00.dcache.tags.age_task_id_blocks_1024::1           17                       # Occupied blocks per task id
system.cpu00.dcache.tags.occ_task_id_percent::1024            1                       # Percentage of cache occupancy per task id
system.cpu00.dcache.tags.tag_accesses         6065931                       # Number of tag accesses
system.cpu00.dcache.tags.data_accesses        6065931                       # Number of data accesses
system.cpu00.dcache.ReadReq_hits::cpu00.data      1421431                       # number of ReadReq hits
system.cpu00.dcache.ReadReq_hits::total       1421431                       # number of ReadReq hits
system.cpu00.dcache.WriteReq_hits::cpu00.data       327359                       # number of WriteReq hits
system.cpu00.dcache.WriteReq_hits::total       327359                       # number of WriteReq hits
system.cpu00.dcache.LoadLockedReq_hits::cpu00.data         6229                       # number of LoadLockedReq hits
system.cpu00.dcache.LoadLockedReq_hits::total         6229                       # number of LoadLockedReq hits
system.cpu00.dcache.StoreCondReq_hits::cpu00.data         6968                       # number of StoreCondReq hits
system.cpu00.dcache.StoreCondReq_hits::total         6968                       # number of StoreCondReq hits
system.cpu00.dcache.demand_hits::cpu00.data      1748790                       # number of demand (read+write) hits
system.cpu00.dcache.demand_hits::total        1748790                       # number of demand (read+write) hits
system.cpu00.dcache.overall_hits::cpu00.data      1748790                       # number of overall hits
system.cpu00.dcache.overall_hits::total       1748790                       # number of overall hits
system.cpu00.dcache.ReadReq_misses::cpu00.data       806386                       # number of ReadReq misses
system.cpu00.dcache.ReadReq_misses::total       806386                       # number of ReadReq misses
system.cpu00.dcache.WriteReq_misses::cpu00.data       291577                       # number of WriteReq misses
system.cpu00.dcache.WriteReq_misses::total       291577                       # number of WriteReq misses
system.cpu00.dcache.LoadLockedReq_misses::cpu00.data          830                       # number of LoadLockedReq misses
system.cpu00.dcache.LoadLockedReq_misses::total          830                       # number of LoadLockedReq misses
system.cpu00.dcache.StoreCondReq_misses::cpu00.data            3                       # number of StoreCondReq misses
system.cpu00.dcache.StoreCondReq_misses::total            3                       # number of StoreCondReq misses
system.cpu00.dcache.demand_misses::cpu00.data      1097963                       # number of demand (read+write) misses
system.cpu00.dcache.demand_misses::total      1097963                       # number of demand (read+write) misses
system.cpu00.dcache.overall_misses::cpu00.data      1097963                       # number of overall misses
system.cpu00.dcache.overall_misses::total      1097963                       # number of overall misses
system.cpu00.dcache.ReadReq_miss_latency::cpu00.data 116898542766                       # number of ReadReq miss cycles
system.cpu00.dcache.ReadReq_miss_latency::total 116898542766                       # number of ReadReq miss cycles
system.cpu00.dcache.WriteReq_miss_latency::cpu00.data  61916774676                       # number of WriteReq miss cycles
system.cpu00.dcache.WriteReq_miss_latency::total  61916774676                       # number of WriteReq miss cycles
system.cpu00.dcache.LoadLockedReq_miss_latency::cpu00.data      9354177                       # number of LoadLockedReq miss cycles
system.cpu00.dcache.LoadLockedReq_miss_latency::total      9354177                       # number of LoadLockedReq miss cycles
system.cpu00.dcache.StoreCondReq_miss_latency::cpu00.data        31347                       # number of StoreCondReq miss cycles
system.cpu00.dcache.StoreCondReq_miss_latency::total        31347                       # number of StoreCondReq miss cycles
system.cpu00.dcache.demand_miss_latency::cpu00.data 178815317442                       # number of demand (read+write) miss cycles
system.cpu00.dcache.demand_miss_latency::total 178815317442                       # number of demand (read+write) miss cycles
system.cpu00.dcache.overall_miss_latency::cpu00.data 178815317442                       # number of overall miss cycles
system.cpu00.dcache.overall_miss_latency::total 178815317442                       # number of overall miss cycles
system.cpu00.dcache.ReadReq_accesses::cpu00.data      2227817                       # number of ReadReq accesses(hits+misses)
system.cpu00.dcache.ReadReq_accesses::total      2227817                       # number of ReadReq accesses(hits+misses)
system.cpu00.dcache.WriteReq_accesses::cpu00.data       618936                       # number of WriteReq accesses(hits+misses)
system.cpu00.dcache.WriteReq_accesses::total       618936                       # number of WriteReq accesses(hits+misses)
system.cpu00.dcache.LoadLockedReq_accesses::cpu00.data         7059                       # number of LoadLockedReq accesses(hits+misses)
system.cpu00.dcache.LoadLockedReq_accesses::total         7059                       # number of LoadLockedReq accesses(hits+misses)
system.cpu00.dcache.StoreCondReq_accesses::cpu00.data         6971                       # number of StoreCondReq accesses(hits+misses)
system.cpu00.dcache.StoreCondReq_accesses::total         6971                       # number of StoreCondReq accesses(hits+misses)
system.cpu00.dcache.demand_accesses::cpu00.data      2846753                       # number of demand (read+write) accesses
system.cpu00.dcache.demand_accesses::total      2846753                       # number of demand (read+write) accesses
system.cpu00.dcache.overall_accesses::cpu00.data      2846753                       # number of overall (read+write) accesses
system.cpu00.dcache.overall_accesses::total      2846753                       # number of overall (read+write) accesses
system.cpu00.dcache.ReadReq_miss_rate::cpu00.data     0.361962                       # miss rate for ReadReq accesses
system.cpu00.dcache.ReadReq_miss_rate::total     0.361962                       # miss rate for ReadReq accesses
system.cpu00.dcache.WriteReq_miss_rate::cpu00.data     0.471094                       # miss rate for WriteReq accesses
system.cpu00.dcache.WriteReq_miss_rate::total     0.471094                       # miss rate for WriteReq accesses
system.cpu00.dcache.LoadLockedReq_miss_rate::cpu00.data     0.117580                       # miss rate for LoadLockedReq accesses
system.cpu00.dcache.LoadLockedReq_miss_rate::total     0.117580                       # miss rate for LoadLockedReq accesses
system.cpu00.dcache.StoreCondReq_miss_rate::cpu00.data     0.000430                       # miss rate for StoreCondReq accesses
system.cpu00.dcache.StoreCondReq_miss_rate::total     0.000430                       # miss rate for StoreCondReq accesses
system.cpu00.dcache.demand_miss_rate::cpu00.data     0.385690                       # miss rate for demand accesses
system.cpu00.dcache.demand_miss_rate::total     0.385690                       # miss rate for demand accesses
system.cpu00.dcache.overall_miss_rate::cpu00.data     0.385690                       # miss rate for overall accesses
system.cpu00.dcache.overall_miss_rate::total     0.385690                       # miss rate for overall accesses
system.cpu00.dcache.ReadReq_avg_miss_latency::cpu00.data 144965.987463                       # average ReadReq miss latency
system.cpu00.dcache.ReadReq_avg_miss_latency::total 144965.987463                       # average ReadReq miss latency
system.cpu00.dcache.WriteReq_avg_miss_latency::cpu00.data 212351.367481                       # average WriteReq miss latency
system.cpu00.dcache.WriteReq_avg_miss_latency::total 212351.367481                       # average WriteReq miss latency
system.cpu00.dcache.LoadLockedReq_avg_miss_latency::cpu00.data 11270.092771                       # average LoadLockedReq miss latency
system.cpu00.dcache.LoadLockedReq_avg_miss_latency::total 11270.092771                       # average LoadLockedReq miss latency
system.cpu00.dcache.StoreCondReq_avg_miss_latency::cpu00.data        10449                       # average StoreCondReq miss latency
system.cpu00.dcache.StoreCondReq_avg_miss_latency::total        10449                       # average StoreCondReq miss latency
system.cpu00.dcache.demand_avg_miss_latency::cpu00.data 162860.968395                       # average overall miss latency
system.cpu00.dcache.demand_avg_miss_latency::total 162860.968395                       # average overall miss latency
system.cpu00.dcache.overall_avg_miss_latency::cpu00.data 162860.968395                       # average overall miss latency
system.cpu00.dcache.overall_avg_miss_latency::total 162860.968395                       # average overall miss latency
system.cpu00.dcache.blocked_cycles::no_mshrs      8699835                       # number of cycles access was blocked
system.cpu00.dcache.blocked_cycles::no_targets           65                       # number of cycles access was blocked
system.cpu00.dcache.blocked::no_mshrs          240128                       # number of cycles access was blocked
system.cpu00.dcache.blocked::no_targets             3                       # number of cycles access was blocked
system.cpu00.dcache.avg_blocked_cycles::no_mshrs    36.229990                       # average number of cycles each access was blocked
system.cpu00.dcache.avg_blocked_cycles::no_targets    21.666667                       # average number of cycles each access was blocked
system.cpu00.dcache.fast_writes                     0                       # number of fast writes performed
system.cpu00.dcache.cache_copies                    0                       # number of cache copies performed
system.cpu00.dcache.writebacks::writebacks       222164                       # number of writebacks
system.cpu00.dcache.writebacks::total          222164                       # number of writebacks
system.cpu00.dcache.ReadReq_mshr_hits::cpu00.data       530368                       # number of ReadReq MSHR hits
system.cpu00.dcache.ReadReq_mshr_hits::total       530368                       # number of ReadReq MSHR hits
system.cpu00.dcache.WriteReq_mshr_hits::cpu00.data       219051                       # number of WriteReq MSHR hits
system.cpu00.dcache.WriteReq_mshr_hits::total       219051                       # number of WriteReq MSHR hits
system.cpu00.dcache.LoadLockedReq_mshr_hits::cpu00.data          442                       # number of LoadLockedReq MSHR hits
system.cpu00.dcache.LoadLockedReq_mshr_hits::total          442                       # number of LoadLockedReq MSHR hits
system.cpu00.dcache.demand_mshr_hits::cpu00.data       749419                       # number of demand (read+write) MSHR hits
system.cpu00.dcache.demand_mshr_hits::total       749419                       # number of demand (read+write) MSHR hits
system.cpu00.dcache.overall_mshr_hits::cpu00.data       749419                       # number of overall MSHR hits
system.cpu00.dcache.overall_mshr_hits::total       749419                       # number of overall MSHR hits
system.cpu00.dcache.ReadReq_mshr_misses::cpu00.data       276018                       # number of ReadReq MSHR misses
system.cpu00.dcache.ReadReq_mshr_misses::total       276018                       # number of ReadReq MSHR misses
system.cpu00.dcache.WriteReq_mshr_misses::cpu00.data        72526                       # number of WriteReq MSHR misses
system.cpu00.dcache.WriteReq_mshr_misses::total        72526                       # number of WriteReq MSHR misses
system.cpu00.dcache.LoadLockedReq_mshr_misses::cpu00.data          388                       # number of LoadLockedReq MSHR misses
system.cpu00.dcache.LoadLockedReq_mshr_misses::total          388                       # number of LoadLockedReq MSHR misses
system.cpu00.dcache.StoreCondReq_mshr_misses::cpu00.data            3                       # number of StoreCondReq MSHR misses
system.cpu00.dcache.StoreCondReq_mshr_misses::total            3                       # number of StoreCondReq MSHR misses
system.cpu00.dcache.demand_mshr_misses::cpu00.data       348544                       # number of demand (read+write) MSHR misses
system.cpu00.dcache.demand_mshr_misses::total       348544                       # number of demand (read+write) MSHR misses
system.cpu00.dcache.overall_mshr_misses::cpu00.data       348544                       # number of overall MSHR misses
system.cpu00.dcache.overall_mshr_misses::total       348544                       # number of overall MSHR misses
system.cpu00.dcache.ReadReq_mshr_miss_latency::cpu00.data  51252458778                       # number of ReadReq MSHR miss cycles
system.cpu00.dcache.ReadReq_mshr_miss_latency::total  51252458778                       # number of ReadReq MSHR miss cycles
system.cpu00.dcache.WriteReq_mshr_miss_latency::cpu00.data  16768542363                       # number of WriteReq MSHR miss cycles
system.cpu00.dcache.WriteReq_mshr_miss_latency::total  16768542363                       # number of WriteReq MSHR miss cycles
system.cpu00.dcache.LoadLockedReq_mshr_miss_latency::cpu00.data      5057316                       # number of LoadLockedReq MSHR miss cycles
system.cpu00.dcache.LoadLockedReq_mshr_miss_latency::total      5057316                       # number of LoadLockedReq MSHR miss cycles
system.cpu00.dcache.StoreCondReq_mshr_miss_latency::cpu00.data        27864                       # number of StoreCondReq MSHR miss cycles
system.cpu00.dcache.StoreCondReq_mshr_miss_latency::total        27864                       # number of StoreCondReq MSHR miss cycles
system.cpu00.dcache.demand_mshr_miss_latency::cpu00.data  68021001141                       # number of demand (read+write) MSHR miss cycles
system.cpu00.dcache.demand_mshr_miss_latency::total  68021001141                       # number of demand (read+write) MSHR miss cycles
system.cpu00.dcache.overall_mshr_miss_latency::cpu00.data  68021001141                       # number of overall MSHR miss cycles
system.cpu00.dcache.overall_mshr_miss_latency::total  68021001141                       # number of overall MSHR miss cycles
system.cpu00.dcache.ReadReq_mshr_miss_rate::cpu00.data     0.123896                       # mshr miss rate for ReadReq accesses
system.cpu00.dcache.ReadReq_mshr_miss_rate::total     0.123896                       # mshr miss rate for ReadReq accesses
system.cpu00.dcache.WriteReq_mshr_miss_rate::cpu00.data     0.117179                       # mshr miss rate for WriteReq accesses
system.cpu00.dcache.WriteReq_mshr_miss_rate::total     0.117179                       # mshr miss rate for WriteReq accesses
system.cpu00.dcache.LoadLockedReq_mshr_miss_rate::cpu00.data     0.054965                       # mshr miss rate for LoadLockedReq accesses
system.cpu00.dcache.LoadLockedReq_mshr_miss_rate::total     0.054965                       # mshr miss rate for LoadLockedReq accesses
system.cpu00.dcache.StoreCondReq_mshr_miss_rate::cpu00.data     0.000430                       # mshr miss rate for StoreCondReq accesses
system.cpu00.dcache.StoreCondReq_mshr_miss_rate::total     0.000430                       # mshr miss rate for StoreCondReq accesses
system.cpu00.dcache.demand_mshr_miss_rate::cpu00.data     0.122436                       # mshr miss rate for demand accesses
system.cpu00.dcache.demand_mshr_miss_rate::total     0.122436                       # mshr miss rate for demand accesses
system.cpu00.dcache.overall_mshr_miss_rate::cpu00.data     0.122436                       # mshr miss rate for overall accesses
system.cpu00.dcache.overall_mshr_miss_rate::total     0.122436                       # mshr miss rate for overall accesses
system.cpu00.dcache.ReadReq_avg_mshr_miss_latency::cpu00.data 185685.204508                       # average ReadReq mshr miss latency
system.cpu00.dcache.ReadReq_avg_mshr_miss_latency::total 185685.204508                       # average ReadReq mshr miss latency
system.cpu00.dcache.WriteReq_avg_mshr_miss_latency::cpu00.data 231207.323760                       # average WriteReq mshr miss latency
system.cpu00.dcache.WriteReq_avg_mshr_miss_latency::total 231207.323760                       # average WriteReq mshr miss latency
[...]
system.tol2bus.pkt_count_system.cpu06.dcache.mem_side::system.l2.cpu_side       945272                       # Packet count per connected master and slave (bytes)
system.tol2bus.pkt_count_system.cpu07.icache.mem_side::system.l2.cpu_side        10279                       # Packet count per connected master and slave (bytes)
system.tol2bus.pkt_count_system.cpu07.dcache.mem_side::system.l2.cpu_side       939859                       # Packet count per connected master and slave (bytes)
system.tol2bus.pkt_count_system.cpu08.icache.mem_side::system.l2.cpu_side        11839                       # Packet count per connected master and slave (bytes)
system.tol2bus.pkt_count_system.cpu08.dcache.mem_side::system.l2.cpu_side       939608                       # Packet count per connected master and slave (bytes)
system.tol2bus.pkt_count_system.cpu09.icache.mem_side::system.l2.cpu_side        11428                       # Packet count per connected master and slave (bytes)
system.tol2bus.pkt_count_system.cpu09.dcache.mem_side::system.l2.cpu_side       931485                       # Packet count per connected master and slave (bytes)
system.tol2bus.pkt_count_system.cpu10.icache.mem_side::system.l2.cpu_side        10357                       # Packet count per connected master and slave (bytes)
system.tol2bus.pkt_count_system.cpu10.dcache.mem_side::system.l2.cpu_side       938825                       # Packet count per connected master and slave (bytes)
system.tol2bus.pkt_count_system.cpu11.icache.mem_side::system.l2.cpu_side        10216                       # Packet count per connected master and slave (bytes)
system.tol2bus.pkt_count_system.cpu11.dcache.mem_side::system.l2.cpu_side       941110                       # Packet count per connected master and slave (bytes)
system.tol2bus.pkt_count_system.cpu12.icache.mem_side::system.l2.cpu_side        11812                       # Packet count per connected master and slave (bytes)
system.tol2bus.pkt_count_system.cpu12.dcache.mem_side::system.l2.cpu_side       938404                       # Packet count per connected master and slave (bytes)
system.tol2bus.pkt_count_system.cpu13.icache.mem_side::system.l2.cpu_side        12205                       # Packet count per connected master and slave (bytes)
system.tol2bus.pkt_count_system.cpu13.dcache.mem_side::system.l2.cpu_side       924057                       # Packet count per connected master and slave (bytes)
system.tol2bus.pkt_count_system.cpu14.icache.mem_side::system.l2.cpu_side        11149                       # Packet count per connected master and slave (bytes)
system.tol2bus.pkt_count_system.cpu14.dcache.mem_side::system.l2.cpu_side       940529                       # Packet count per connected master and slave (bytes)
system.tol2bus.pkt_count_system.cpu15.icache.mem_side::system.l2.cpu_side        12895                       # Packet count per connected master and slave (bytes)
system.tol2bus.pkt_count_system.cpu15.dcache.mem_side::system.l2.cpu_side       928037                       # Packet count per connected master and slave (bytes)
system.tol2bus.pkt_count::total              15257795                       # Packet count per connected master and slave (bytes)
system.tol2bus.pkt_size_system.cpu00.icache.mem_side::system.l2.cpu_side      1539840                       # Cumulative packet size per connected master and slave (bytes)
system.tol2bus.pkt_size_system.cpu00.dcache.mem_side::system.l2.cpu_side     35331072                       # Cumulative packet size per connected master and slave (bytes)
system.tol2bus.pkt_size_system.cpu01.icache.mem_side::system.l2.cpu_side       531712                       # Cumulative packet size per connected master and slave (bytes)
system.tol2bus.pkt_size_system.cpu01.dcache.mem_side::system.l2.cpu_side     32842816                       # Cumulative packet size per connected master and slave (bytes)
system.tol2bus.pkt_size_system.cpu02.icache.mem_side::system.l2.cpu_side       458368                       # Cumulative packet size per connected master and slave (bytes)
system.tol2bus.pkt_size_system.cpu02.dcache.mem_side::system.l2.cpu_side     33153280                       # Cumulative packet size per connected master and slave (bytes)
system.tol2bus.pkt_size_system.cpu03.icache.mem_side::system.l2.cpu_side       460928                       # Cumulative packet size per connected master and slave (bytes)
system.tol2bus.pkt_size_system.cpu03.dcache.mem_side::system.l2.cpu_side     32589888                       # Cumulative packet size per connected master and slave (bytes)
system.tol2bus.pkt_size_system.cpu04.icache.mem_side::system.l2.cpu_side       533632                       # Cumulative packet size per connected master and slave (bytes)
system.tol2bus.pkt_size_system.cpu04.dcache.mem_side::system.l2.cpu_side     32766720                       # Cumulative packet size per connected master and slave (bytes)
system.tol2bus.pkt_size_system.cpu05.icache.mem_side::system.l2.cpu_side       475904                       # Cumulative packet size per connected master and slave (bytes)
system.tol2bus.pkt_size_system.cpu05.dcache.mem_side::system.l2.cpu_side     32586176                       # Cumulative packet size per connected master and slave (bytes)
system.tol2bus.pkt_size_system.cpu06.icache.mem_side::system.l2.cpu_side       425856                       # Cumulative packet size per connected master and slave (bytes)
system.tol2bus.pkt_size_system.cpu06.dcache.mem_side::system.l2.cpu_side     32753792                       # Cumulative packet size per connected master and slave (bytes)
system.tol2bus.pkt_size_system.cpu07.icache.mem_side::system.l2.cpu_side       427648                       # Cumulative packet size per connected master and slave (bytes)
system.tol2bus.pkt_size_system.cpu07.dcache.mem_side::system.l2.cpu_side     32509120                       # Cumulative packet size per connected master and slave (bytes)
system.tol2bus.pkt_size_system.cpu08.icache.mem_side::system.l2.cpu_side       494208                       # Cumulative packet size per connected master and slave (bytes)
system.tol2bus.pkt_size_system.cpu08.dcache.mem_side::system.l2.cpu_side     32344256                       # Cumulative packet size per connected master and slave (bytes)
system.tol2bus.pkt_size_system.cpu09.icache.mem_side::system.l2.cpu_side       476672                       # Cumulative packet size per connected master and slave (bytes)
system.tol2bus.pkt_size_system.cpu09.dcache.mem_side::system.l2.cpu_side     31862016                       # Cumulative packet size per connected master and slave (bytes)
system.tol2bus.pkt_size_system.cpu10.icache.mem_side::system.l2.cpu_side       430976                       # Cumulative packet size per connected master and slave (bytes)
system.tol2bus.pkt_size_system.cpu10.dcache.mem_side::system.l2.cpu_side     32075328                       # Cumulative packet size per connected master and slave (bytes)
system.tol2bus.pkt_size_system.cpu11.icache.mem_side::system.l2.cpu_side       424960                       # Cumulative packet size per connected master and slave (bytes)
system.tol2bus.pkt_size_system.cpu11.dcache.mem_side::system.l2.cpu_side     32378304                       # Cumulative packet size per connected master and slave (bytes)
system.tol2bus.pkt_size_system.cpu12.icache.mem_side::system.l2.cpu_side       493056                       # Cumulative packet size per connected master and slave (bytes)
system.tol2bus.pkt_size_system.cpu12.dcache.mem_side::system.l2.cpu_side     32423616                       # Cumulative packet size per connected master and slave (bytes)
system.tol2bus.pkt_size_system.cpu13.icache.mem_side::system.l2.cpu_side       509824                       # Cumulative packet size per connected master and slave (bytes)
system.tol2bus.pkt_size_system.cpu13.dcache.mem_side::system.l2.cpu_side     31819392                       # Cumulative packet size per connected master and slave (bytes)
system.tol2bus.pkt_size_system.cpu14.icache.mem_side::system.l2.cpu_side       464768                       # Cumulative packet size per connected master and slave (bytes)
system.tol2bus.pkt_size_system.cpu14.dcache.mem_side::system.l2.cpu_side     32202432                       # Cumulative packet size per connected master and slave (bytes)
system.tol2bus.pkt_size_system.cpu15.icache.mem_side::system.l2.cpu_side       539264                       # Cumulative packet size per connected master and slave (bytes)
system.tol2bus.pkt_size_system.cpu15.dcache.mem_side::system.l2.cpu_side     32578944                       # Cumulative packet size per connected master and slave (bytes)
system.tol2bus.pkt_size::total              530904768                       # Cumulative packet size per connected master and slave (bytes)
system.tol2bus.snoops                          945231                       # Total snoops (count)
system.tol2bus.snoop_fanout::samples          6048953                       # Request fanout histogram
system.tol2bus.snoop_fanout::mean            0.545860                       # Request fanout histogram
system.tol2bus.snoop_fanout::stdev           2.221367                       # Request fanout histogram
system.tol2bus.snoop_fanout::underflows             0      0.00%      0.00% # Request fanout histogram
system.tol2bus.snoop_fanout::0                5347075     88.40%     88.40% # Request fanout histogram
system.tol2bus.snoop_fanout::1                 312258      5.16%     93.56% # Request fanout histogram
system.tol2bus.snoop_fanout::2                  79424      1.31%     94.87% # Request fanout histogram
system.tol2bus.snoop_fanout::3                  34250      0.57%     95.44% # Request fanout histogram
system.tol2bus.snoop_fanout::4                  24002      0.40%     95.83% # Request fanout histogram
system.tol2bus.snoop_fanout::5                  21645      0.36%     96.19% # Request fanout histogram
system.tol2bus.snoop_fanout::6                  20616      0.34%     96.53% # Request fanout histogram
system.tol2bus.snoop_fanout::7                  21277      0.35%     96.89% # Request fanout histogram
system.tol2bus.snoop_fanout::8                  19871      0.33%     97.21% # Request fanout histogram
system.tol2bus.snoop_fanout::9                  19951      0.33%     97.54% # Request fanout histogram
system.tol2bus.snoop_fanout::10                 20893      0.35%     97.89% # Request fanout histogram
system.tol2bus.snoop_fanout::11                 21659      0.36%     98.25% # Request fanout histogram
system.tol2bus.snoop_fanout::12                 20608      0.34%     98.59% # Request fanout histogram
system.tol2bus.snoop_fanout::13                 21225      0.35%     98.94% # Request fanout histogram
system.tol2bus.snoop_fanout::14                 24450      0.40%     99.34% # Request fanout histogram
system.tol2bus.snoop_fanout::15                 36055      0.60%     99.94% # Request fanout histogram
system.tol2bus.snoop_fanout::16                  3694      0.06%    100.00% # Request fanout histogram
system.tol2bus.snoop_fanout::17                     0      0.00%    100.00% # Request fanout histogram
system.tol2bus.snoop_fanout::18                     0      0.00%    100.00% # Request fanout histogram
system.tol2bus.snoop_fanout::19                     0      0.00%    100.00% # Request fanout histogram
system.tol2bus.snoop_fanout::20                     0      0.00%    100.00% # Request fanout histogram
system.tol2bus.snoop_fanout::21                     0      0.00%    100.00% # Request fanout histogram
system.tol2bus.snoop_fanout::22                     0      0.00%    100.00% # Request fanout histogram
system.tol2bus.snoop_fanout::23                     0      0.00%    100.00% # Request fanout histogram
system.tol2bus.snoop_fanout::24                     0      0.00%    100.00% # Request fanout histogram
system.tol2bus.snoop_fanout::25                     0      0.00%    100.00% # Request fanout histogram
system.tol2bus.snoop_fanout::26                     0      0.00%    100.00% # Request fanout histogram
system.tol2bus.snoop_fanout::27                     0      0.00%    100.00% # Request fanout histogram
system.tol2bus.snoop_fanout::28                     0      0.00%    100.00% # Request fanout histogram
system.tol2bus.snoop_fanout::29                     0      0.00%    100.00% # Request fanout histogram
system.tol2bus.snoop_fanout::30                     0      0.00%    100.00% # Request fanout histogram
system.tol2bus.snoop_fanout::31                     0      0.00%    100.00% # Request fanout histogram
system.tol2bus.snoop_fanout::32                     0      0.00%    100.00% # Request fanout histogram
system.tol2bus.snoop_fanout::overflows              0      0.00%    100.00% # Request fanout histogram
system.tol2bus.snoop_fanout::min_value              0                       # Request fanout histogram
system.tol2bus.snoop_fanout::max_value             16                       # Request fanout histogram
system.tol2bus.snoop_fanout::total            6048953                       # Request fanout histogram
system.tol2bus.reqLayer0.occupancy        20061857979                       # Layer occupancy (ticks)
system.tol2bus.reqLayer0.utilization             84.0                       # Layer utilization (%)
system.tol2bus.respLayer0.occupancy          44167594                       # Layer occupancy (ticks)
system.tol2bus.respLayer0.utilization             0.2                       # Layer utilization (%)
system.tol2bus.respLayer1.occupancy        1222501782                       # Layer occupancy (ticks)
system.tol2bus.respLayer1.utilization             5.1                       # Layer utilization (%)
system.tol2bus.respLayer2.occupancy          16465588                       # Layer occupancy (ticks)
system.tol2bus.respLayer2.utilization             0.1                       # Layer utilization (%)
system.tol2bus.respLayer3.occupancy        1109522692                       # Layer occupancy (ticks)
system.tol2bus.respLayer3.utilization             4.6                       # Layer utilization (%)
system.tol2bus.respLayer4.occupancy          14339415                       # Layer occupancy (ticks)
system.tol2bus.respLayer4.utilization             0.1                       # Layer utilization (%)
system.tol2bus.respLayer5.occupancy        1127299835                       # Layer occupancy (ticks)
system.tol2bus.respLayer5.utilization             4.7                       # Layer utilization (%)
system.tol2bus.respLayer6.occupancy          14509612                       # Layer occupancy (ticks)
system.tol2bus.respLayer6.utilization             0.1                       # Layer utilization (%)
system.tol2bus.respLayer7.occupancy        1118982009                       # Layer occupancy (ticks)
system.tol2bus.respLayer7.utilization             4.7                       # Layer utilization (%)
system.tol2bus.respLayer8.occupancy          16637080                       # Layer occupancy (ticks)
system.tol2bus.respLayer8.utilization             0.1                       # Layer utilization (%)
system.tol2bus.respLayer9.occupancy        1106628326                       # Layer occupancy (ticks)
system.tol2bus.respLayer9.utilization             4.6                       # Layer utilization (%)
system.tol2bus.respLayer10.occupancy         14844583                       # Layer occupancy (ticks)
system.tol2bus.respLayer10.utilization            0.1                       # Layer utilization (%)
system.tol2bus.respLayer11.occupancy       1122761498                       # Layer occupancy (ticks)
system.tol2bus.respLayer11.utilization            4.7                       # Layer utilization (%)
system.tol2bus.respLayer12.occupancy         13705655                       # Layer occupancy (ticks)
system.tol2bus.respLayer12.utilization            0.1                       # Layer utilization (%)
system.tol2bus.respLayer13.occupancy       1141466689                       # Layer occupancy (ticks)
system.tol2bus.respLayer13.utilization            4.8                       # Layer utilization (%)
system.tol2bus.respLayer14.occupancy         13816671                       # Layer occupancy (ticks)
system.tol2bus.respLayer14.utilization            0.1                       # Layer utilization (%)
system.tol2bus.respLayer15.occupancy       1132695815                       # Layer occupancy (ticks)
system.tol2bus.respLayer15.utilization            4.7                       # Layer utilization (%)
system.tol2bus.respLayer16.occupancy         15412233                       # Layer occupancy (ticks)
system.tol2bus.respLayer16.utilization            0.1                       # Layer utilization (%)
system.tol2bus.respLayer17.occupancy       1124050343                       # Layer occupancy (ticks)
system.tol2bus.respLayer17.utilization            4.7                       # Layer utilization (%)
system.tol2bus.respLayer18.occupancy         14892944                       # Layer occupancy (ticks)
system.tol2bus.respLayer18.utilization            0.1                       # Layer utilization (%)
system.tol2bus.respLayer19.occupancy       1115452914                       # Layer occupancy (ticks)
system.tol2bus.respLayer19.utilization            4.7                       # Layer utilization (%)
system.tol2bus.respLayer20.occupancy         13883377                       # Layer occupancy (ticks)
system.tol2bus.respLayer20.utilization            0.1                       # Layer utilization (%)
system.tol2bus.respLayer21.occupancy       1134563282                       # Layer occupancy (ticks)
system.tol2bus.respLayer21.utilization            4.7                       # Layer utilization (%)
system.tol2bus.respLayer22.occupancy         13595816                       # Layer occupancy (ticks)
system.tol2bus.respLayer22.utilization            0.1                       # Layer utilization (%)
system.tol2bus.respLayer23.occupancy       1135105177                       # Layer occupancy (ticks)
system.tol2bus.respLayer23.utilization            4.8                       # Layer utilization (%)
system.tol2bus.respLayer24.occupancy         15474311                       # Layer occupancy (ticks)
system.tol2bus.respLayer24.utilization            0.1                       # Layer utilization (%)
system.tol2bus.respLayer25.occupancy       1124171629                       # Layer occupancy (ticks)
system.tol2bus.respLayer25.utilization            4.7                       # Layer utilization (%)
system.tol2bus.respLayer26.occupancy         15939824                       # Layer occupancy (ticks)
system.tol2bus.respLayer26.utilization            0.1                       # Layer utilization (%)
system.tol2bus.respLayer27.occupancy       1105210852                       # Layer occupancy (ticks)
system.tol2bus.respLayer27.utilization            4.6                       # Layer utilization (%)
system.tol2bus.respLayer28.occupancy         14606717                       # Layer occupancy (ticks)
system.tol2bus.respLayer28.utilization            0.1                       # Layer utilization (%)
system.tol2bus.respLayer29.occupancy       1134524682                       # Layer occupancy (ticks)
system.tol2bus.respLayer29.utilization            4.7                       # Layer utilization (%)
system.tol2bus.respLayer30.occupancy         16776822                       # Layer occupancy (ticks)
system.tol2bus.respLayer30.utilization            0.1                       # Layer utilization (%)
system.tol2bus.respLayer31.occupancy       1108371178                       # Layer occupancy (ticks)
system.tol2bus.respLayer31.utilization            4.6                       # Layer utilization (%)

---------- End Simulation Statistics   ----------
