
---------- Begin Simulation Statistics ----------
sim_seconds                                  0.001351                       # Number of seconds simulated
sim_ticks                                  1350891108                       # Number of ticks simulated
final_tick                                 1350891108                       # Number of ticks from beginning of simulation (restored from checkpoints and never reset)
sim_freq                                 1000000000000                       # Frequency of simulated ticks
host_inst_rate                                 104360                       # Simulator instruction rate (inst/s)
host_op_rate                                   104360                       # Simulator op (including micro ops) rate (op/s)
host_tick_rate                               55531707                       # Simulator tick rate (ticks/s)
host_mem_usage                                 694976                       # Number of bytes of host memory used
host_seconds                                    24.33                       # Real time elapsed on the host
sim_insts                                     2538708                       # Number of instructions simulated
sim_ops                                       2538708                       # Number of ops (including micro ops) simulated
system.voltage_domain.voltage                       1                       # Voltage in Volts
system.clk_domain.clock                          1000                       # Clock period in ticks
system.mem_ctrls.bytes_read::cpu00.inst        122816                       # Number of bytes read from this memory
system.mem_ctrls.bytes_read::cpu00.data        378368                       # Number of bytes read from this memory
system.mem_ctrls.bytes_read::cpu01.inst         11840                       # Number of bytes read from this memory
system.mem_ctrls.bytes_read::cpu01.data          7552                       # Number of bytes read from this memory
system.mem_ctrls.bytes_read::cpu02.inst          1152                       # Number of bytes read from this memory
system.mem_ctrls.bytes_read::cpu02.data          4608                       # Number of bytes read from this memory
system.mem_ctrls.bytes_read::cpu03.inst           448                       # Number of bytes read from this memory
system.mem_ctrls.bytes_read::cpu03.data          4608                       # Number of bytes read from this memory
system.mem_ctrls.bytes_read::cpu04.inst           128                       # Number of bytes read from this memory
system.mem_ctrls.bytes_read::cpu04.data          5376                       # Number of bytes read from this memory
system.mem_ctrls.bytes_read::cpu05.inst           640                       # Number of bytes read from this memory
system.mem_ctrls.bytes_read::cpu05.data          5504                       # Number of bytes read from this memory
system.mem_ctrls.bytes_read::cpu06.inst           576                       # Number of bytes read from this memory
system.mem_ctrls.bytes_read::cpu06.data          5824                       # Number of bytes read from this memory
system.mem_ctrls.bytes_read::cpu07.inst          1600                       # Number of bytes read from this memory
system.mem_ctrls.bytes_read::cpu07.data          6464                       # Number of bytes read from this memory
system.mem_ctrls.bytes_read::cpu08.inst          1088                       # Number of bytes read from this memory
system.mem_ctrls.bytes_read::cpu08.data          6272                       # Number of bytes read from this memory
system.mem_ctrls.bytes_read::cpu09.inst          3328                       # Number of bytes read from this memory
system.mem_ctrls.bytes_read::cpu09.data          5568                       # Number of bytes read from this memory
system.mem_ctrls.bytes_read::cpu10.inst           832                       # Number of bytes read from this memory
system.mem_ctrls.bytes_read::cpu10.data          5568                       # Number of bytes read from this memory
system.mem_ctrls.bytes_read::cpu11.inst          2624                       # Number of bytes read from this memory
system.mem_ctrls.bytes_read::cpu11.data          6464                       # Number of bytes read from this memory
system.mem_ctrls.bytes_read::cpu12.inst           192                       # Number of bytes read from this memory
system.mem_ctrls.bytes_read::cpu12.data          5376                       # Number of bytes read from this memory
system.mem_ctrls.bytes_read::cpu13.inst          4864                       # Number of bytes read from this memory
system.mem_ctrls.bytes_read::cpu13.data          5952                       # Number of bytes read from this memory
system.mem_ctrls.bytes_read::cpu14.inst           704                       # Number of bytes read from this memory
system.mem_ctrls.bytes_read::cpu14.data          6528                       # Number of bytes read from this memory
system.mem_ctrls.bytes_read::cpu15.inst           832                       # Number of bytes read from this memory
system.mem_ctrls.bytes_read::cpu15.data          5440                       # Number of bytes read from this memory
system.mem_ctrls.bytes_read::total             619136                       # Number of bytes read from this memory
system.mem_ctrls.bytes_inst_read::cpu00.inst       122816                       # Number of instructions bytes read from this memory
system.mem_ctrls.bytes_inst_read::cpu01.inst        11840                       # Number of instructions bytes read from this memory
system.mem_ctrls.bytes_inst_read::cpu02.inst         1152                       # Number of instructions bytes read from this memory
system.mem_ctrls.bytes_inst_read::cpu03.inst          448                       # Number of instructions bytes read from this memory
system.mem_ctrls.bytes_inst_read::cpu04.inst          128                       # Number of instructions bytes read from this memory
system.mem_ctrls.bytes_inst_read::cpu05.inst          640                       # Number of instructions bytes read from this memory
system.mem_ctrls.bytes_inst_read::cpu06.inst          576                       # Number of instructions bytes read from this memory
system.mem_ctrls.bytes_inst_read::cpu07.inst         1600                       # Number of instructions bytes read from this memory
system.mem_ctrls.bytes_inst_read::cpu08.inst         1088                       # Number of instructions bytes read from this memory
system.mem_ctrls.bytes_inst_read::cpu09.inst         3328                       # Number of instructions bytes read from this memory
system.mem_ctrls.bytes_inst_read::cpu10.inst          832                       # Number of instructions bytes read from this memory
system.mem_ctrls.bytes_inst_read::cpu11.inst         2624                       # Number of instructions bytes read from this memory
system.mem_ctrls.bytes_inst_read::cpu12.inst          192                       # Number of instructions bytes read from this memory
system.mem_ctrls.bytes_inst_read::cpu13.inst         4864                       # Number of instructions bytes read from this memory
system.mem_ctrls.bytes_inst_read::cpu14.inst          704                       # Number of instructions bytes read from this memory
system.mem_ctrls.bytes_inst_read::cpu15.inst          832                       # Number of instructions bytes read from this memory
system.mem_ctrls.bytes_inst_read::total        153664                       # Number of instructions bytes read from this memory
system.mem_ctrls.bytes_written::writebacks        69504                       # Number of bytes written to this memory
system.mem_ctrls.bytes_written::total           69504                       # Number of bytes written to this memory
system.mem_ctrls.num_reads::cpu00.inst           1919                       # Number of read requests responded to by this memory
system.mem_ctrls.num_reads::cpu00.data           5912                       # Number of read requests responded to by this memory
system.mem_ctrls.num_reads::cpu01.inst            185                       # Number of read requests responded to by this memory
system.mem_ctrls.num_reads::cpu01.data            118                       # Number of read requests responded to by this memory
system.mem_ctrls.num_reads::cpu02.inst             18                       # Number of read requests responded to by this memory
system.mem_ctrls.num_reads::cpu02.data             72                       # Number of read requests responded to by this memory
system.mem_ctrls.num_reads::cpu03.inst              7                       # Number of read requests responded to by this memory
system.mem_ctrls.num_reads::cpu03.data             72                       # Number of read requests responded to by this memory
system.mem_ctrls.num_reads::cpu04.inst              2                       # Number of read requests responded to by this memory
system.mem_ctrls.num_reads::cpu04.data             84                       # Number of read requests responded to by this memory
system.mem_ctrls.num_reads::cpu05.inst             10                       # Number of read requests responded to by this memory
system.mem_ctrls.num_reads::cpu05.data             86                       # Number of read requests responded to by this memory
system.mem_ctrls.num_reads::cpu06.inst              9                       # Number of read requests responded to by this memory
system.mem_ctrls.num_reads::cpu06.data             91                       # Number of read requests responded to by this memory
system.mem_ctrls.num_reads::cpu07.inst             25                       # Number of read requests responded to by this memory
system.mem_ctrls.num_reads::cpu07.data            101                       # Number of read requests responded to by this memory
system.mem_ctrls.num_reads::cpu08.inst             17                       # Number of read requests responded to by this memory
system.mem_ctrls.num_reads::cpu08.data             98                       # Number of read requests responded to by this memory
system.mem_ctrls.num_reads::cpu09.inst             52                       # Number of read requests responded to by this memory
system.mem_ctrls.num_reads::cpu09.data             87                       # Number of read requests responded to by this memory
system.mem_ctrls.num_reads::cpu10.inst             13                       # Number of read requests responded to by this memory
system.mem_ctrls.num_reads::cpu10.data             87                       # Number of read requests responded to by this memory
system.mem_ctrls.num_reads::cpu11.inst             41                       # Number of read requests responded to by this memory
system.mem_ctrls.num_reads::cpu11.data            101                       # Number of read requests responded to by this memory
system.mem_ctrls.num_reads::cpu12.inst              3                       # Number of read requests responded to by this memory
system.mem_ctrls.num_reads::cpu12.data             84                       # Number of read requests responded to by this memory
system.mem_ctrls.num_reads::cpu13.inst             76                       # Number of read requests responded to by this memory
system.mem_ctrls.num_reads::cpu13.data             93                       # Number of read requests responded to by this memory
system.mem_ctrls.num_reads::cpu14.inst             11                       # Number of read requests responded to by this memory
system.mem_ctrls.num_reads::cpu14.data            102                       # Number of read requests responded to by this memory
system.mem_ctrls.num_reads::cpu15.inst             13                       # Number of read requests responded to by this memory
system.mem_ctrls.num_reads::cpu15.data             85                       # Number of read requests responded to by this memory
system.mem_ctrls.num_reads::total                9674                       # Number of read requests responded to by this memory
system.mem_ctrls.num_writes::writebacks          1086                       # Number of write requests responded to by this memory
system.mem_ctrls.num_writes::total               1086                       # Number of write requests responded to by this memory
system.mem_ctrls.bw_read::cpu00.inst         90914804                       # Total read bandwidth from this memory (bytes/s)
system.mem_ctrls.bw_read::cpu00.data        280087712                       # Total read bandwidth from this memory (bytes/s)
system.mem_ctrls.bw_read::cpu01.inst          8764585                       # Total read bandwidth from this memory (bytes/s)
system.mem_ctrls.bw_read::cpu01.data          5590384                       # Total read bandwidth from this memory (bytes/s)
system.mem_ctrls.bw_read::cpu02.inst           852770                       # Total read bandwidth from this memory (bytes/s)
system.mem_ctrls.bw_read::cpu02.data          3411082                       # Total read bandwidth from this memory (bytes/s)
system.mem_ctrls.bw_read::cpu03.inst           331633                       # Total read bandwidth from this memory (bytes/s)
system.mem_ctrls.bw_read::cpu03.data          3411082                       # Total read bandwidth from this memory (bytes/s)
system.mem_ctrls.bw_read::cpu04.inst            94752                       # Total read bandwidth from this memory (bytes/s)
system.mem_ctrls.bw_read::cpu04.data          3979595                       # Total read bandwidth from this memory (bytes/s)
system.mem_ctrls.bw_read::cpu05.inst           473761                       # Total read bandwidth from this memory (bytes/s)
system.mem_ctrls.bw_read::cpu05.data          4074348                       # Total read bandwidth from this memory (bytes/s)
system.mem_ctrls.bw_read::cpu06.inst           426385                       # Total read bandwidth from this memory (bytes/s)
system.mem_ctrls.bw_read::cpu06.data          4311228                       # Total read bandwidth from this memory (bytes/s)
system.mem_ctrls.bw_read::cpu07.inst          1184403                       # Total read bandwidth from this memory (bytes/s)
system.mem_ctrls.bw_read::cpu07.data          4784990                       # Total read bandwidth from this memory (bytes/s)
system.mem_ctrls.bw_read::cpu08.inst           805394                       # Total read bandwidth from this memory (bytes/s)
system.mem_ctrls.bw_read::cpu08.data          4642861                       # Total read bandwidth from this memory (bytes/s)
system.mem_ctrls.bw_read::cpu09.inst          2463559                       # Total read bandwidth from this memory (bytes/s)
system.mem_ctrls.bw_read::cpu09.data          4121724                       # Total read bandwidth from this memory (bytes/s)
system.mem_ctrls.bw_read::cpu10.inst           615890                       # Total read bandwidth from this memory (bytes/s)
system.mem_ctrls.bw_read::cpu10.data          4121724                       # Total read bandwidth from this memory (bytes/s)
system.mem_ctrls.bw_read::cpu11.inst          1942422                       # Total read bandwidth from this memory (bytes/s)
system.mem_ctrls.bw_read::cpu11.data          4784990                       # Total read bandwidth from this memory (bytes/s)
system.mem_ctrls.bw_read::cpu12.inst           142128                       # Total read bandwidth from this memory (bytes/s)
system.mem_ctrls.bw_read::cpu12.data          3979595                       # Total read bandwidth from this memory (bytes/s)
system.mem_ctrls.bw_read::cpu13.inst          3600586                       # Total read bandwidth from this memory (bytes/s)
system.mem_ctrls.bw_read::cpu13.data          4405981                       # Total read bandwidth from this memory (bytes/s)
system.mem_ctrls.bw_read::cpu14.inst           521137                       # Total read bandwidth from this memory (bytes/s)
system.mem_ctrls.bw_read::cpu14.data          4832366                       # Total read bandwidth from this memory (bytes/s)
system.mem_ctrls.bw_read::cpu15.inst           615890                       # Total read bandwidth from this memory (bytes/s)
system.mem_ctrls.bw_read::cpu15.data          4026972                       # Total read bandwidth from this memory (bytes/s)
system.mem_ctrls.bw_read::total             458316734                       # Total read bandwidth from this memory (bytes/s)
system.mem_ctrls.bw_inst_read::cpu00.inst     90914804                       # Instruction read bandwidth from this memory (bytes/s)
system.mem_ctrls.bw_inst_read::cpu01.inst      8764585                       # Instruction read bandwidth from this memory (bytes/s)
system.mem_ctrls.bw_inst_read::cpu02.inst       852770                       # Instruction read bandwidth from this memory (bytes/s)
system.mem_ctrls.bw_inst_read::cpu03.inst       331633                       # Instruction read bandwidth from this memory (bytes/s)
system.mem_ctrls.bw_inst_read::cpu04.inst        94752                       # Instruction read bandwidth from this memory (bytes/s)
system.mem_ctrls.bw_inst_read::cpu05.inst       473761                       # Instruction read bandwidth from this memory (bytes/s)
system.mem_ctrls.bw_inst_read::cpu06.inst       426385                       # Instruction read bandwidth from this memory (bytes/s)
system.mem_ctrls.bw_inst_read::cpu07.inst      1184403                       # Instruction read bandwidth from this memory (bytes/s)
system.mem_ctrls.bw_inst_read::cpu08.inst       805394                       # Instruction read bandwidth from this memory (bytes/s)
system.mem_ctrls.bw_inst_read::cpu09.inst      2463559                       # Instruction read bandwidth from this memory (bytes/s)
system.mem_ctrls.bw_inst_read::cpu10.inst       615890                       # Instruction read bandwidth from this memory (bytes/s)
system.mem_ctrls.bw_inst_read::cpu11.inst      1942422                       # Instruction read bandwidth from this memory (bytes/s)
system.mem_ctrls.bw_inst_read::cpu12.inst       142128                       # Instruction read bandwidth from this memory (bytes/s)
system.mem_ctrls.bw_inst_read::cpu13.inst      3600586                       # Instruction read bandwidth from this memory (bytes/s)
system.mem_ctrls.bw_inst_read::cpu14.inst       521137                       # Instruction read bandwidth from this memory (bytes/s)
system.mem_ctrls.bw_inst_read::cpu15.inst       615890                       # Instruction read bandwidth from this memory (bytes/s)
system.mem_ctrls.bw_inst_read::total        113750101                       # Instruction read bandwidth from this memory (bytes/s)
system.mem_ctrls.bw_write::writebacks        51450483                       # Write bandwidth from this memory (bytes/s)
system.mem_ctrls.bw_write::total             51450483                       # Write bandwidth from this memory (bytes/s)
system.mem_ctrls.bw_total::writebacks        51450483                       # Total bandwidth to/from this memory (bytes/s)
system.mem_ctrls.bw_total::cpu00.inst        90914804                       # Total bandwidth to/from this memory (bytes/s)
system.mem_ctrls.bw_total::cpu00.data       280087712                       # Total bandwidth to/from this memory (bytes/s)
system.mem_ctrls.bw_total::cpu01.inst         8764585                       # Total bandwidth to/from this memory (bytes/s)
system.mem_ctrls.bw_total::cpu01.data         5590384                       # Total bandwidth to/from this memory (bytes/s)
system.mem_ctrls.bw_total::cpu02.inst          852770                       # Total bandwidth to/from this memory (bytes/s)
system.mem_ctrls.bw_total::cpu02.data         3411082                       # Total bandwidth to/from this memory (bytes/s)
system.mem_ctrls.bw_total::cpu03.inst          331633                       # Total bandwidth to/from this memory (bytes/s)
system.mem_ctrls.bw_total::cpu03.data         3411082                       # Total bandwidth to/from this memory (bytes/s)
system.mem_ctrls.bw_total::cpu04.inst           94752                       # Total bandwidth to/from this memory (bytes/s)
system.mem_ctrls.bw_total::cpu04.data         3979595                       # Total bandwidth to/from this memory (bytes/s)
system.mem_ctrls.bw_total::cpu05.inst          473761                       # Total bandwidth to/from this memory (bytes/s)
system.mem_ctrls.bw_total::cpu05.data         4074348                       # Total bandwidth to/from this memory (bytes/s)
system.mem_ctrls.bw_total::cpu06.inst          426385                       # Total bandwidth to/from this memory (bytes/s)
system.mem_ctrls.bw_total::cpu06.data         4311228                       # Total bandwidth to/from this memory (bytes/s)
system.mem_ctrls.bw_total::cpu07.inst         1184403                       # Total bandwidth to/from this memory (bytes/s)
system.mem_ctrls.bw_total::cpu07.data         4784990                       # Total bandwidth to/from this memory (bytes/s)
system.mem_ctrls.bw_total::cpu08.inst          805394                       # Total bandwidth to/from this memory (bytes/s)
system.mem_ctrls.bw_total::cpu08.data         4642861                       # Total bandwidth to/from this memory (bytes/s)
system.mem_ctrls.bw_total::cpu09.inst         2463559                       # Total bandwidth to/from this memory (bytes/s)
system.mem_ctrls.bw_total::cpu09.data         4121724                       # Total bandwidth to/from this memory (bytes/s)
system.mem_ctrls.bw_total::cpu10.inst          615890                       # Total bandwidth to/from this memory (bytes/s)
system.mem_ctrls.bw_total::cpu10.data         4121724                       # Total bandwidth to/from this memory (bytes/s)
system.mem_ctrls.bw_total::cpu11.inst         1942422                       # Total bandwidth to/from this memory (bytes/s)
system.mem_ctrls.bw_total::cpu11.data         4784990                       # Total bandwidth to/from this memory (bytes/s)
system.mem_ctrls.bw_total::cpu12.inst          142128                       # Total bandwidth to/from this memory (bytes/s)
system.mem_ctrls.bw_total::cpu12.data         3979595                       # Total bandwidth to/from this memory (bytes/s)
system.mem_ctrls.bw_total::cpu13.inst         3600586                       # Total bandwidth to/from this memory (bytes/s)
system.mem_ctrls.bw_total::cpu13.data         4405981                       # Total bandwidth to/from this memory (bytes/s)
system.mem_ctrls.bw_total::cpu14.inst          521137                       # Total bandwidth to/from this memory (bytes/s)
system.mem_ctrls.bw_total::cpu14.data         4832366                       # Total bandwidth to/from this memory (bytes/s)
system.mem_ctrls.bw_total::cpu15.inst          615890                       # Total bandwidth to/from this memory (bytes/s)
system.mem_ctrls.bw_total::cpu15.data         4026972                       # Total bandwidth to/from this memory (bytes/s)
system.mem_ctrls.bw_total::total            509767217                       # Total bandwidth to/from this memory (bytes/s)
system.cpu00.branchPred.lookups                132069                       # Number of BP lookups
system.cpu00.branchPred.condPredicted           73485                       # Number of conditional branches predicted
system.cpu00.branchPred.condIncorrect            5669                       # Number of conditional branches incorrect
system.cpu00.branchPred.BTBLookups              86939                       # Number of BTB lookups
system.cpu00.branchPred.BTBHits                 66277                       # Number of BTB hits
system.cpu00.branchPred.BTBCorrect                  0                       # Number of correct BTB predictions (this stat may not work properly.
system.cpu00.branchPred.BTBHitPct           76.233911                       # BTB Hit Percentage
system.cpu00.branchPred.usedRAS                 26451                       # Number of times the RAS was used to get a target.
system.cpu00.branchPred.RASInCorrect               81                       # Number of incorrect RAS predictions.
system.cpu00.branchPred.indirectLookups          3623                       # Number of indirect predictor lookups.
system.cpu00.branchPred.indirectHits             2883                       # Number of indirect target hits.
system.cpu00.branchPred.indirectMisses            740                       # Number of indirect misses.
system.cpu00.branchPredindirectMispredicted          255                       # Number of mispredicted indirect branches.
system.cpu_voltage_domain.voltage                   1                       # Voltage in Volts
system.cpu_clk_domain.clock                      1242                       # Clock period in ticks
system.cpu00.dtb.fetch_hits                         0                       # ITB hits
system.cpu00.dtb.fetch_misses                       0                       # ITB misses
system.cpu00.dtb.fetch_acv                          0                       # ITB acv
system.cpu00.dtb.fetch_accesses                     0                       # ITB accesses
system.cpu00.dtb.read_hits                     180037                       # DTB read hits
system.cpu00.dtb.read_misses                      621                       # DTB read misses
system.cpu00.dtb.read_acv                           0                       # DTB read access violations
system.cpu00.dtb.read_accesses                 180658                       # DTB read accesses
system.cpu00.dtb.write_hits                    127503                       # DTB write hits
system.cpu00.dtb.write_misses                    1131                       # DTB write misses
system.cpu00.dtb.write_acv                          0                       # DTB write access violations
system.cpu00.dtb.write_accesses                128634                       # DTB write accesses
system.cpu00.dtb.data_hits                     307540                       # DTB hits
system.cpu00.dtb.data_misses                     1752                       # DTB misses
system.cpu00.dtb.data_acv                           0                       # DTB access violations
system.cpu00.dtb.data_accesses                 309292                       # DTB accesses
system.cpu00.itb.fetch_hits                    148795                       # ITB hits
system.cpu00.itb.fetch_misses                     159                       # ITB misses
system.cpu00.itb.fetch_acv                          0                       # ITB acv
system.cpu00.itb.fetch_accesses                148954                       # ITB accesses
system.cpu00.itb.read_hits                          0                       # DTB read hits
system.cpu00.itb.read_misses                        0                       # DTB read misses
system.cpu00.itb.read_acv                           0                       # DTB read access violations
system.cpu00.itb.read_accesses                      0                       # DTB read accesses
system.cpu00.itb.write_hits                         0                       # DTB write hits
system.cpu00.itb.write_misses                       0                       # DTB write misses
system.cpu00.itb.write_acv                          0                       # DTB write access violations
system.cpu00.itb.write_accesses                     0                       # DTB write accesses
system.cpu00.itb.data_hits                          0                       # DTB hits
system.cpu00.itb.data_misses                        0                       # DTB misses
system.cpu00.itb.data_acv                           0                       # DTB access violations
system.cpu00.itb.data_accesses                      0                       # DTB accesses
system.cpu00.workload.num_syscalls               2898                       # Number of system calls
system.cpu00.numCycles                         993657                       # number of cpu cycles simulated
system.cpu00.numWorkItemsStarted                    0                       # number of work items this cpu started
system.cpu00.numWorkItemsCompleted                  0                       # number of work items this cpu completed
system.cpu00.fetch.icacheStallCycles            86613                       # Number of cycles fetch is stalled on an Icache miss
system.cpu00.fetch.Insts                      1186358                       # Number of instructions fetch has processed
system.cpu00.fetch.Branches                    132069                       # Number of branches that fetch encountered
system.cpu00.fetch.predictedBranches            95611                       # Number of branches that fetch has predicted taken
system.cpu00.fetch.Cycles                      699211                       # Number of cycles fetch has run and was not squashing or blocked
system.cpu00.fetch.SquashCycles                 12694                       # Number of cycles fetch has spent squashing
system.cpu00.fetch.MiscStallCycles                537                       # Number of cycles fetch has spent waiting on interrupts, or bad addresses, or out of MSHRs
system.cpu00.fetch.PendingTrapStallCycles         6233                       # Number of stall cycles due to pending traps
system.cpu00.fetch.IcacheWaitRetryStallCycles          521                       # Number of stall cycles due to full MSHR
system.cpu00.fetch.CacheLines                  148795                       # Number of cache lines fetched
system.cpu00.fetch.IcacheSquashes                2651                       # Number of outstanding Icache misses that were squashed
system.cpu00.fetch.rateDist::samples           799462                       # Number of instructions fetched each cycle (Total)
system.cpu00.fetch.rateDist::mean            1.483945                       # Number of instructions fetched each cycle (Total)
system.cpu00.fetch.rateDist::stdev           2.741679                       # Number of instructions fetched each cycle (Total)
system.cpu00.fetch.rateDist::underflows             0      0.00%      0.00% # Number of instructions fetched each cycle (Total)
system.cpu00.fetch.rateDist::0                 582393     72.85%     72.85% # Number of instructions fetched each cycle (Total)
system.cpu00.fetch.rateDist::1                  16376      2.05%     74.90% # Number of instructions fetched each cycle (Total)
system.cpu00.fetch.rateDist::2                  17266      2.16%     77.06% # Number of instructions fetched each cycle (Total)
system.cpu00.fetch.rateDist::3                  16893      2.11%     79.17% # Number of instructions fetched each cycle (Total)
system.cpu00.fetch.rateDist::4                  37925      4.74%     83.91% # Number of instructions fetched each cycle (Total)
system.cpu00.fetch.rateDist::5                  15709      1.96%     85.88% # Number of instructions fetched each cycle (Total)
system.cpu00.fetch.rateDist::6                  18696      2.34%     88.22% # Number of instructions fetched each cycle (Total)
system.cpu00.fetch.rateDist::7                  11282      1.41%     89.63% # Number of instructions fetched each cycle (Total)
system.cpu00.fetch.rateDist::8                  82922     10.37%    100.00% # Number of instructions fetched each cycle (Total)
system.cpu00.fetch.rateDist::overflows              0      0.00%    100.00% # Number of instructions fetched each cycle (Total)
system.cpu00.fetch.rateDist::min_value              0                       # Number of instructions fetched each cycle (Total)
system.cpu00.fetch.rateDist::max_value              8                       # Number of instructions fetched each cycle (Total)
system.cpu00.fetch.rateDist::total             799462                       # Number of instructions fetched each cycle (Total)
system.cpu00.fetch.branchRate                0.132912                       # Number of branch fetches per cycle
system.cpu00.fetch.rate                      1.193931                       # Number of inst fetches per cycle
system.cpu00.decode.IdleCycles                  92916                       # Number of cycles decode is idle
system.cpu00.decode.BlockedCycles              539088                       # Number of cycles decode is blocked
system.cpu00.decode.RunCycles                  129846                       # Number of cycles decode is running
system.cpu00.decode.UnblockCycles               32987                       # Number of cycles decode is unblocking
system.cpu00.decode.SquashCycles                 4625                       # Number of cycles decode is squashing
system.cpu00.decode.BranchResolved              26434                       # Number of times decode resolved a branch
system.cpu00.decode.BranchMispred                1751                       # Number of times decode detected a branch misprediction
system.cpu00.decode.DecodedInsts              1123500                       # Number of instructions handled by decode
system.cpu00.decode.SquashedInsts                7272                       # Number of squashed instructions handled by decode
system.cpu00.rename.SquashCycles                 4625                       # Number of cycles rename is squashing
system.cpu00.rename.IdleCycles                 108691                       # Number of cycles rename is idle
system.cpu00.rename.BlockCycles                 86027                       # Number of cycles rename is blocking
system.cpu00.rename.serializeStallCycles       214655                       # count of cycles rename stalled for serializing inst
system.cpu00.rename.RunCycles                  147203                       # Number of cycles rename is running
system.cpu00.rename.UnblockCycles              238261                       # Number of cycles rename is unblocking
system.cpu00.rename.RenamedInsts              1104317                       # Number of instructions processed by rename
system.cpu00.rename.ROBFullEvents                2640                       # Number of times rename has blocked due to ROB full
system.cpu00.rename.IQFullEvents                21907                       # Number of times rename has blocked due to IQ full
system.cpu00.rename.LQFullEvents                 2052                       # Number of times rename has blocked due to LQ full
system.cpu00.rename.SQFullEvents               203649                       # Number of times rename has blocked due to SQ full
system.cpu00.rename.RenamedOperands            756976                       # Number of destination operands rename has renamed
system.cpu00.rename.RenameLookups             1367033                       # Number of register rename lookups that rename has made
system.cpu00.rename.int_rename_lookups        1208913                       # Number of integer rename lookups
system.cpu00.rename.fp_rename_lookups          155833                       # Number of floating rename lookups
system.cpu00.rename.CommittedMaps              668866                       # Number of HB maps that are committed
system.cpu00.rename.UndoneMaps                  88110                       # Number of HB maps that are undone due to squashing
system.cpu00.rename.serializingInsts             4018                       # count of serializing insts renamed
system.cpu00.rename.tempSerializingInsts         1655                       # count of temporary serializing insts renamed
system.cpu00.rename.skidInsts                  146865                       # count of insts added to the skid buffer
system.cpu00.memDep0.insertedLoads             179316                       # Number of loads inserted to the mem dependence unit.
system.cpu00.memDep0.insertedStores            135007                       # Number of stores inserted to the mem dependence unit.
system.cpu00.memDep0.conflictingLoads           31920                       # Number of conflicting loads.
system.cpu00.memDep0.conflictingStores          12005                       # Number of conflicting stores.
system.cpu00.iq.iqInstsAdded                   967282                       # Number of instructions added to the IQ (excludes non-spec)
system.cpu00.iq.iqNonSpecInstsAdded              2735                       # Number of non-speculative instructions added to the IQ
system.cpu00.iq.iqInstsIssued                  950478                       # Number of instructions issued
system.cpu00.iq.iqSquashedInstsIssued            1647                       # Number of squashed instructions issued
system.cpu00.iq.iqSquashedInstsExamined        100077                       # Number of squashed instructions iterated over during squash; mainly for profiling
system.cpu00.iq.iqSquashedOperandsExamined        50218                       # Number of squashed operands that are examined and possibly removed from graph
system.cpu00.iq.iqSquashedNonSpecRemoved          360                       # Number of squashed non-spec instructions that were removed
system.cpu00.iq.issued_per_cycle::samples       799462                       # Number of insts issued each cycle
system.cpu00.iq.issued_per_cycle::mean       1.188897                       # Number of insts issued each cycle
system.cpu00.iq.issued_per_cycle::stdev      1.948860                       # Number of insts issued each cycle
system.cpu00.iq.issued_per_cycle::underflows            0      0.00%      0.00% # Number of insts issued each cycle
system.cpu00.iq.issued_per_cycle::0            502514     62.86%     62.86% # Number of insts issued each cycle
system.cpu00.iq.issued_per_cycle::1             73296      9.17%     72.02% # Number of insts issued each cycle
system.cpu00.iq.issued_per_cycle::2             60556      7.57%     79.60% # Number of insts issued each cycle
system.cpu00.iq.issued_per_cycle::3             44960      5.62%     85.22% # Number of insts issued each cycle
system.cpu00.iq.issued_per_cycle::4             43317      5.42%     90.64% # Number of insts issued each cycle
system.cpu00.iq.issued_per_cycle::5             28409      3.55%     94.19% # Number of insts issued each cycle
system.cpu00.iq.issued_per_cycle::6             26883      3.36%     97.56% # Number of insts issued each cycle
system.cpu00.iq.issued_per_cycle::7             11637      1.46%     99.01% # Number of insts issued each cycle
system.cpu00.iq.issued_per_cycle::8              7890      0.99%    100.00% # Number of insts issued each cycle
system.cpu00.iq.issued_per_cycle::overflows            0      0.00%    100.00% # Number of insts issued each cycle
system.cpu00.iq.issued_per_cycle::min_value            0                       # Number of insts issued each cycle
system.cpu00.iq.issued_per_cycle::max_value            8                       # Number of insts issued each cycle
system.cpu00.iq.issued_per_cycle::total        799462                       # Number of insts issued each cycle
system.cpu00.iq.fu_full::No_OpClass                 0      0.00%      0.00% # attempts to use FU when none available
system.cpu00.iq.fu_full::IntAlu                  4911     16.17%     16.17% # attempts to use FU when none available
system.cpu00.iq.fu_full::IntMult                 4097     13.49%     29.66% # attempts to use FU when none available
system.cpu00.iq.fu_full::IntDiv                     0      0.00%     29.66% # attempts to use FU when none available
system.cpu00.iq.fu_full::FloatAdd                  62      0.20%     29.87% # attempts to use FU when none available
system.cpu00.iq.fu_full::FloatCmp                   0      0.00%     29.87% # attempts to use FU when none available
system.cpu00.iq.fu_full::FloatCvt                   0      0.00%     29.87% # attempts to use FU when none available
system.cpu00.iq.fu_full::FloatMult               5902     19.44%     49.30% # attempts to use FU when none available
system.cpu00.iq.fu_full::FloatDiv                   0      0.00%     49.30% # attempts to use FU when none available
system.cpu00.iq.fu_full::FloatSqrt                  0      0.00%     49.30% # attempts to use FU when none available
system.cpu00.iq.fu_full::SimdAdd                    0      0.00%     49.30% # attempts to use FU when none available
system.cpu00.iq.fu_full::SimdAddAcc                 0      0.00%     49.30% # attempts to use FU when none available
system.cpu00.iq.fu_full::SimdAlu                    0      0.00%     49.30% # attempts to use FU when none available
system.cpu00.iq.fu_full::SimdCmp                    0      0.00%     49.30% # attempts to use FU when none available
system.cpu00.iq.fu_full::SimdCvt                    0      0.00%     49.30% # attempts to use FU when none available
system.cpu00.iq.fu_full::SimdMisc                   0      0.00%     49.30% # attempts to use FU when none available
system.cpu00.iq.fu_full::SimdMult                   0      0.00%     49.30% # attempts to use FU when none available
system.cpu00.iq.fu_full::SimdMultAcc                0      0.00%     49.30% # attempts to use FU when none available
system.cpu00.iq.fu_full::SimdShift                  0      0.00%     49.30% # attempts to use FU when none available
system.cpu00.iq.fu_full::SimdShiftAcc               0      0.00%     49.30% # attempts to use FU when none available
system.cpu00.iq.fu_full::SimdSqrt                   0      0.00%     49.30% # attempts to use FU when none available
system.cpu00.iq.fu_full::SimdFloatAdd               0      0.00%     49.30% # attempts to use FU when none available
system.cpu00.iq.fu_full::SimdFloatAlu               0      0.00%     49.30% # attempts to use FU when none available
system.cpu00.iq.fu_full::SimdFloatCmp               0      0.00%     49.30% # attempts to use FU when none available
system.cpu00.iq.fu_full::SimdFloatCvt               0      0.00%     49.30% # attempts to use FU when none available
system.cpu00.iq.fu_full::SimdFloatDiv               0      0.00%     49.30% # attempts to use FU when none available
system.cpu00.iq.fu_full::SimdFloatMisc              0      0.00%     49.30% # attempts to use FU when none available
system.cpu00.iq.fu_full::SimdFloatMult              0      0.00%     49.30% # attempts to use FU when none available
system.cpu00.iq.fu_full::SimdFloatMultAcc            0      0.00%     49.30% # attempts to use FU when none available
system.cpu00.iq.fu_full::SimdFloatSqrt              0      0.00%     49.30% # attempts to use FU when none available
system.cpu00.iq.fu_full::MemRead                 9480     31.22%     80.52% # attempts to use FU when none available
system.cpu00.iq.fu_full::MemWrite                5915     19.48%    100.00% # attempts to use FU when none available
system.cpu00.iq.fu_full::IprAccess                  0      0.00%    100.00% # attempts to use FU when none available
system.cpu00.iq.fu_full::InstPrefetch               0      0.00%    100.00% # attempts to use FU when none available
system.cpu00.iq.FU_type_0::No_OpClass               0      0.00%      0.00% # Type of FU issued
system.cpu00.iq.FU_type_0::IntAlu              550830     57.95%     57.95% # Type of FU issued
system.cpu00.iq.FU_type_0::IntMult              12785      1.35%     59.30% # Type of FU issued
system.cpu00.iq.FU_type_0::IntDiv                   0      0.00%     59.30% # Type of FU issued
system.cpu00.iq.FU_type_0::FloatAdd             35721      3.76%     63.06% # Type of FU issued
system.cpu00.iq.FU_type_0::FloatCmp                 8      0.00%     63.06% # Type of FU issued
system.cpu00.iq.FU_type_0::FloatCvt                 0      0.00%     63.06% # Type of FU issued
system.cpu00.iq.FU_type_0::FloatMult            37106      3.90%     66.96% # Type of FU issued
system.cpu00.iq.FU_type_0::FloatDiv                16      0.00%     66.96% # Type of FU issued
system.cpu00.iq.FU_type_0::FloatSqrt                0      0.00%     66.96% # Type of FU issued
system.cpu00.iq.FU_type_0::SimdAdd                  0      0.00%     66.96% # Type of FU issued
system.cpu00.iq.FU_type_0::SimdAddAcc               0      0.00%     66.96% # Type of FU issued
system.cpu00.iq.FU_type_0::SimdAlu                  0      0.00%     66.96% # Type of FU issued
system.cpu00.iq.FU_type_0::SimdCmp                  0      0.00%     66.96% # Type of FU issued
system.cpu00.iq.FU_type_0::SimdCvt                  0      0.00%     66.96% # Type of FU issued
system.cpu00.iq.FU_type_0::SimdMisc                 0      0.00%     66.96% # Type of FU issued
system.cpu00.iq.FU_type_0::SimdMult                 0      0.00%     66.96% # Type of FU issued
system.cpu00.iq.FU_type_0::SimdMultAcc              0      0.00%     66.96% # Type of FU issued
system.cpu00.iq.FU_type_0::SimdShift                0      0.00%     66.96% # Type of FU issued
system.cpu00.iq.FU_type_0::SimdShiftAcc             0      0.00%     66.96% # Type of FU issued
system.cpu00.iq.FU_type_0::SimdSqrt                 0      0.00%     66.96% # Type of FU issued
system.cpu00.iq.FU_type_0::SimdFloatAdd             0      0.00%     66.96% # Type of FU issued
system.cpu00.iq.FU_type_0::SimdFloatAlu             0      0.00%     66.96% # Type of FU issued
system.cpu00.iq.FU_type_0::SimdFloatCmp             0      0.00%     66.96% # Type of FU issued
system.cpu00.iq.FU_type_0::SimdFloatCvt             0      0.00%     66.96% # Type of FU issued
system.cpu00.iq.FU_type_0::SimdFloatDiv             0      0.00%     66.96% # Type of FU issued
system.cpu00.iq.FU_type_0::SimdFloatMisc            0      0.00%     66.96% # Type of FU issued
system.cpu00.iq.FU_type_0::SimdFloatMult            0      0.00%     66.96% # Type of FU issued
system.cpu00.iq.FU_type_0::SimdFloatMultAcc            0      0.00%     66.96% # Type of FU issued
system.cpu00.iq.FU_type_0::SimdFloatSqrt            0      0.00%     66.96% # Type of FU issued
system.cpu00.iq.FU_type_0::MemRead             183887     19.35%     86.31% # Type of FU issued
system.cpu00.iq.FU_type_0::MemWrite            130125     13.69%    100.00% # Type of FU issued
system.cpu00.iq.FU_type_0::IprAccess                0      0.00%    100.00% # Type of FU issued
system.cpu00.iq.FU_type_0::InstPrefetch             0      0.00%    100.00% # Type of FU issued
system.cpu00.iq.FU_type_0::total               950478                       # Type of FU issued
system.cpu00.iq.rate                         0.956545                       # Inst issue rate
system.cpu00.iq.fu_busy_cnt                     30367                       # FU busy when requested
system.cpu00.iq.fu_busy_rate                 0.031949                       # FU busy rate (busy events/executed inst)
system.cpu00.iq.int_inst_queue_reads          2488949                       # Number of integer instruction queue reads
system.cpu00.iq.int_inst_queue_writes          947174                       # Number of integer instruction queue writes
system.cpu00.iq.int_inst_queue_wakeup_accesses       813161                       # Number of integer instruction queue wakeup accesses
system.cpu00.iq.fp_inst_queue_reads            243483                       # Number of floating instruction queue reads
system.cpu00.iq.fp_inst_queue_writes           123338                       # Number of floating instruction queue writes
system.cpu00.iq.fp_inst_queue_wakeup_accesses       116954                       # Number of floating instruction queue wakeup accesses
system.cpu00.iq.int_alu_accesses               855778                       # Number of integer alu accesses
system.cpu00.iq.fp_alu_accesses                125067                       # Number of floating point alu accesses
system.cpu00.iew.lsq.thread0.forwLoads          21101                       # Number of loads that had data forwarded from stores
system.cpu00.iew.lsq.thread0.invAddrLoads            0                       # Number of loads ignored due to an invalid address
system.cpu00.iew.lsq.thread0.squashedLoads        18330                       # Number of loads squashed
system.cpu00.iew.lsq.thread0.ignoredResponses           82                       # Number of memory responses ignored because the instruction is squashed
system.cpu00.iew.lsq.thread0.memOrderViolation          425                       # Number of memory ordering violations
system.cpu00.iew.lsq.thread0.squashedStores        15482                       # Number of stores squashed
system.cpu00.iew.lsq.thread0.invAddrSwpfs            0                       # Number of software prefetches ignored due to an invalid address
system.cpu00.iew.lsq.thread0.blockedLoads            0                       # Number of blocked loads due to partial load-store forwarding
system.cpu00.iew.lsq.thread0.rescheduledLoads          220                       # Number of loads that were rescheduled
system.cpu00.iew.lsq.thread0.cacheBlocked         8939                       # Number of times an access to memory failed due to the cache being blocked
system.cpu00.iew.iewIdleCycles                      0                       # Number of cycles IEW is idle
system.cpu00.iew.iewSquashCycles                 4625                       # Number of cycles IEW is squashing
system.cpu00.iew.iewBlockCycles                 21789                       # Number of cycles IEW is blocking
system.cpu00.iew.iewUnblockCycles               56731                       # Number of cycles IEW is unblocking
system.cpu00.iew.iewDispatchedInsts           1077549                       # Number of instructions dispatched to IQ
system.cpu00.iew.iewDispSquashedInsts            1454                       # Number of squashed instructions skipped by dispatch
system.cpu00.iew.iewDispLoadInsts              179316                       # Number of dispatched load instructions
system.cpu00.iew.iewDispStoreInsts             135007                       # Number of dispatched store instructions
system.cpu00.iew.iewDispNonSpecInsts             1570                       # Number of dispatched non-speculative instructions
system.cpu00.iew.iewIQFullEvents                  111                       # Number of times the IQ has become full, causing a stall
system.cpu00.iew.iewLSQFullEvents               56524                       # Number of times the LSQ has become full, causing a stall
system.cpu00.iew.memOrderViolationEvents          425                       # Number of memory order violations
system.cpu00.iew.predictedTakenIncorrect         1591                       # Number of branches that were predicted taken incorrectly
system.cpu00.iew.predictedNotTakenIncorrect         3116                       # Number of branches that were predicted not taken incorrectly
system.cpu00.iew.branchMispredicts               4707                       # Number of branch mispredicts detected at execute
system.cpu00.iew.iewExecutedInsts              943003                       # Number of executed instructions
system.cpu00.iew.iewExecLoadInsts              180677                       # Number of load instructions executed
system.cpu00.iew.iewExecSquashedInsts            7475                       # Number of squashed instructions skipped in execute
system.cpu00.iew.exec_swp                           0                       # number of swp insts executed
system.cpu00.iew.exec_nop                      107532                       # number of nop insts executed
system.cpu00.iew.exec_refs                     309319                       # number of memory reference insts executed
system.cpu00.iew.exec_branches                 110361                       # Number of branches executed
system.cpu00.iew.exec_stores                   128642                       # Number of stores executed
system.cpu00.iew.exec_rate                   0.949023                       # Inst execution rate
system.cpu00.iew.wb_sent                       933818                       # cumulative count of insts sent to commit
system.cpu00.iew.wb_count                      930115                       # cumulative count of insts written-back
system.cpu00.iew.wb_producers                  545180                       # num instructions producing a value
system.cpu00.iew.wb_consumers                  776429                       # num instructions consuming a value
system.cpu00.iew.wb_rate                     0.936052                       # insts written-back per cycle
system.cpu00.iew.wb_fanout                   0.702163                       # average fanout of values written-back
system.cpu00.commit.commitSquashedInsts        104257                       # The number of squashed insts skipped by commit
system.cpu00.commit.commitNonSpecStalls          2375                       # The number of times commit has been forced to stall to communicate backwards
system.cpu00.commit.branchMispredicts            3947                       # The number of times a branch was mispredicted
system.cpu00.commit.committed_per_cycle::samples       783076                       # Number of insts commited each cycle
system.cpu00.commit.committed_per_cycle::mean     1.236895                       # Number of insts commited each cycle
system.cpu00.commit.committed_per_cycle::stdev     2.324087                       # Number of insts commited each cycle
system.cpu00.commit.committed_per_cycle::underflows            0      0.00%      0.00% # Number of insts commited each cycle
system.cpu00.commit.committed_per_cycle::0       534750     68.29%     68.29% # Number of insts commited each cycle
system.cpu00.commit.committed_per_cycle::1        51347      6.56%     74.85% # Number of insts commited each cycle
system.cpu00.commit.committed_per_cycle::2        51331      6.56%     81.40% # Number of insts commited each cycle
system.cpu00.commit.committed_per_cycle::3        30071      3.84%     85.24% # Number of insts commited each cycle
system.cpu00.commit.committed_per_cycle::4        35663      4.55%     89.79% # Number of insts commited each cycle
system.cpu00.commit.committed_per_cycle::5         8926      1.14%     90.93% # Number of insts commited each cycle
system.cpu00.commit.committed_per_cycle::6        12898      1.65%     92.58% # Number of insts commited each cycle
system.cpu00.commit.committed_per_cycle::7         5029      0.64%     93.22% # Number of insts commited each cycle
system.cpu00.commit.committed_per_cycle::8        53061      6.78%    100.00% # Number of insts commited each cycle
system.cpu00.commit.committed_per_cycle::overflows            0      0.00%    100.00% # Number of insts commited each cycle
system.cpu00.commit.committed_per_cycle::min_value            0                       # Number of insts commited each cycle
system.cpu00.commit.committed_per_cycle::max_value            8                       # Number of insts commited each cycle
system.cpu00.commit.committed_per_cycle::total       783076                       # Number of insts commited each cycle
system.cpu00.commit.committedInsts             968583                       # Number of instructions committed
system.cpu00.commit.committedOps               968583                       # Number of ops (including micro ops) committed
system.cpu00.commit.swp_count                       0                       # Number of s/w prefetches committed
system.cpu00.commit.refs                       280511                       # Number of memory references committed
system.cpu00.commit.loads                      160986                       # Number of loads committed
system.cpu00.commit.membars                      1038                       # Number of memory barriers committed
system.cpu00.commit.branches                   100129                       # Number of branches committed
system.cpu00.commit.fp_insts                   116058                       # Number of committed floating point instructions.
system.cpu00.commit.int_insts                  792067                       # Number of committed integer instructions.
system.cpu00.commit.function_calls              22221                       # Number of function calls committed.
system.cpu00.commit.op_class_0::No_OpClass        98644     10.18%     10.18% # Class of committed instruction
system.cpu00.commit.op_class_0::IntAlu         503263     51.96%     62.14% # Class of committed instruction
system.cpu00.commit.op_class_0::IntMult         12689      1.31%     63.45% # Class of committed instruction
system.cpu00.commit.op_class_0::IntDiv              0      0.00%     63.45% # Class of committed instruction
system.cpu00.commit.op_class_0::FloatAdd        35480      3.66%     67.12% # Class of committed instruction
system.cpu00.commit.op_class_0::FloatCmp            8      0.00%     67.12% # Class of committed instruction
system.cpu00.commit.op_class_0::FloatCvt            0      0.00%     67.12% # Class of committed instruction
system.cpu00.commit.op_class_0::FloatMult        36935      3.81%     70.93% # Class of committed instruction
system.cpu00.commit.op_class_0::FloatDiv           14      0.00%     70.93% # Class of committed instruction
system.cpu00.commit.op_class_0::FloatSqrt            0      0.00%     70.93% # Class of committed instruction
system.cpu00.commit.op_class_0::SimdAdd             0      0.00%     70.93% # Class of committed instruction
system.cpu00.commit.op_class_0::SimdAddAcc            0      0.00%     70.93% # Class of committed instruction
system.cpu00.commit.op_class_0::SimdAlu             0      0.00%     70.93% # Class of committed instruction
system.cpu00.commit.op_class_0::SimdCmp             0      0.00%     70.93% # Class of committed instruction
system.cpu00.commit.op_class_0::SimdCvt             0      0.00%     70.93% # Class of committed instruction
system.cpu00.commit.op_class_0::SimdMisc            0      0.00%     70.93% # Class of committed instruction
system.cpu00.commit.op_class_0::SimdMult            0      0.00%     70.93% # Class of committed instruction
system.cpu00.commit.op_class_0::SimdMultAcc            0      0.00%     70.93% # Class of committed instruction
system.cpu00.commit.op_class_0::SimdShift            0      0.00%     70.93% # Class of committed instruction
system.cpu00.commit.op_class_0::SimdShiftAcc            0      0.00%     70.93% # Class of committed instruction
system.cpu00.commit.op_class_0::SimdSqrt            0      0.00%     70.93% # Class of committed instruction
system.cpu00.commit.op_class_0::SimdFloatAdd            0      0.00%     70.93% # Class of committed instruction
system.cpu00.commit.op_class_0::SimdFloatAlu            0      0.00%     70.93% # Class of committed instruction
system.cpu00.commit.op_class_0::SimdFloatCmp            0      0.00%     70.93% # Class of committed instruction
system.cpu00.commit.op_class_0::SimdFloatCvt            0      0.00%     70.93% # Class of committed instruction
system.cpu00.commit.op_class_0::SimdFloatDiv            0      0.00%     70.93% # Class of committed instruction
system.cpu00.commit.op_class_0::SimdFloatMisc            0      0.00%     70.93% # Class of committed instruction
system.cpu00.commit.op_class_0::SimdFloatMult            0      0.00%     70.93% # Class of committed instruction
system.cpu00.commit.op_class_0::SimdFloatMultAcc            0      0.00%     70.93% # Class of committed instruction
system.cpu00.commit.op_class_0::SimdFloatSqrt            0      0.00%     70.93% # Class of committed instruction
system.cpu00.commit.op_class_0::MemRead        162024     16.73%     87.66% # Class of committed instruction
system.cpu00.commit.op_class_0::MemWrite       119526     12.34%    100.00% # Class of committed instruction
system.cpu00.commit.op_class_0::IprAccess            0      0.00%    100.00% # Class of committed instruction
system.cpu00.commit.op_class_0::InstPrefetch            0      0.00%    100.00% # Class of committed instruction
system.cpu00.commit.op_class_0::total          968583                       # Class of committed instruction
system.cpu00.commit.bw_lim_events               53061                       # number cycles where commit BW limit reached
system.cpu00.rob.rob_reads                    1798877                       # The number of ROB reads
system.cpu00.rob.rob_writes                   2162183                       # The number of ROB writes
system.cpu00.timesIdled                          1451                       # Number of times that the entire CPU went into an idle state and unscheduled itself
system.cpu00.idleCycles                        194195                       # Total number of cycles that the CPU has spent unscheduled due to idling
system.cpu00.quiesceCycles                      94018                       # Total number of cycles that CPU has spent quiesced or waiting for an interrupt
system.cpu00.committedInsts                    869939                       # Number of Instructions Simulated
system.cpu00.committedOps                      869939                       # Number of Ops (including micro ops) Simulated
system.cpu00.cpi                             1.142215                       # CPI: Cycles Per Instruction
system.cpu00.cpi_total                       1.142215                       # CPI: Total CPI of All Threads
system.cpu00.ipc                             0.875492                       # IPC: Instructions Per Cycle
system.cpu00.ipc_total                       0.875492                       # IPC: Total IPC of All Threads
system.cpu00.int_regfile_reads                1138945                       # number of integer regfile reads
system.cpu00.int_regfile_writes                612509                       # number of integer regfile writes
system.cpu00.fp_regfile_reads                  151788                       # number of floating regfile reads
system.cpu00.fp_regfile_writes                 102907                       # number of floating regfile writes
system.cpu00.misc_regfile_reads                  5094                       # number of misc regfile reads
system.cpu00.misc_regfile_writes                 2252                       # number of misc regfile writes
system.cpu00.dcache.tags.replacements           11262                       # number of replacements
system.cpu00.dcache.tags.tagsinuse         124.585509                       # Cycle average of tags in use
system.cpu00.dcache.tags.total_refs            229889                       # Total number of references to valid blocks.
system.cpu00.dcache.tags.sampled_refs           11390                       # Sample count of references to valid blocks.
system.cpu00.dcache.tags.avg_refs           20.183406                       # Average number of references to valid blocks.
system.cpu00.dcache.tags.warmup_cycle        87205788                       # Cycle when the warmup percentage was hit.
system.cpu00.dcache.tags.occ_blocks::cpu00.data   124.585509                       # Average occupied blocks per requestor
system.cpu00.dcache.tags.occ_percent::cpu00.data     0.973324                       # Average percentage of cache occupancy
system.cpu00.dcache.tags.occ_percent::total     0.973324                       # Average percentage of cache occupancy
system.cpu00.dcache.tags.occ_task_id_blocks::1024          128                       # Occupied blocks per task id
system.cpu00.dcache.tags.age_task_id_blocks_1024::0           57                       # Occupied blocks per task id
system.cpu00.dcache.tags.age_task_id_blocks_1024::1           62                       # Occupied blocks per task id
system.cpu00.dcache.tags.age_task_id_blocks_1024::2            9                       # Occupied blocks per task id
system.cpu00.dcache.tags.occ_task_id_percent::1024            1                       # Percentage of cache occupancy per task id
system.cpu00.dcache.tags.tag_accesses         1096597                       # Number of tag accesses
system.cpu00.dcache.tags.data_accesses        1096597                       # Number of data accesses
system.cpu00.dcache.ReadReq_hits::cpu00.data       142254                       # number of ReadReq hits
system.cpu00.dcache.ReadReq_hits::total        142254                       # number of ReadReq hits
system.cpu00.dcache.WriteReq_hits::cpu00.data        85416                       # number of WriteReq hits
system.cpu00.dcache.WriteReq_hits::total        85416                       # number of WriteReq hits
system.cpu00.dcache.LoadLockedReq_hits::cpu00.data          955                       # number of LoadLockedReq hits
system.cpu00.dcache.LoadLockedReq_hits::total          955                       # number of LoadLockedReq hits
system.cpu00.dcache.StoreCondReq_hits::cpu00.data         1101                       # number of StoreCondReq hits
system.cpu00.dcache.StoreCondReq_hits::total         1101                       # number of StoreCondReq hits
system.cpu00.dcache.demand_hits::cpu00.data       227670                       # number of demand (read+write) hits
system.cpu00.dcache.demand_hits::total         227670                       # number of demand (read+write) hits
system.cpu00.dcache.overall_hits::cpu00.data       227670                       # number of overall hits
system.cpu00.dcache.overall_hits::total        227670                       # number of overall hits
system.cpu00.dcache.ReadReq_misses::cpu00.data         8258                       # number of ReadReq misses
system.cpu00.dcache.ReadReq_misses::total         8258                       # number of ReadReq misses
system.cpu00.dcache.WriteReq_misses::cpu00.data        32986                       # number of WriteReq misses
system.cpu00.dcache.WriteReq_misses::total        32986                       # number of WriteReq misses
system.cpu00.dcache.LoadLockedReq_misses::cpu00.data          237                       # number of LoadLockedReq misses
system.cpu00.dcache.LoadLockedReq_misses::total          237                       # number of LoadLockedReq misses
system.cpu00.dcache.StoreCondReq_misses::cpu00.data           22                       # number of StoreCondReq misses
system.cpu00.dcache.StoreCondReq_misses::total           22                       # number of StoreCondReq misses
system.cpu00.dcache.demand_misses::cpu00.data        41244                       # number of demand (read+write) misses
system.cpu00.dcache.demand_misses::total        41244                       # number of demand (read+write) misses
system.cpu00.dcache.overall_misses::cpu00.data        41244                       # number of overall misses
system.cpu00.dcache.overall_misses::total        41244                       # number of overall misses
system.cpu00.dcache.ReadReq_miss_latency::cpu00.data    423473562                       # number of ReadReq miss cycles
system.cpu00.dcache.ReadReq_miss_latency::total    423473562                       # number of ReadReq miss cycles
system.cpu00.dcache.WriteReq_miss_latency::cpu00.data   5495217421                       # number of WriteReq miss cycles
system.cpu00.dcache.WriteReq_miss_latency::total   5495217421                       # number of WriteReq miss cycles
system.cpu00.dcache.LoadLockedReq_miss_latency::cpu00.data      2882682                       # number of LoadLockedReq miss cycles
system.cpu00.dcache.LoadLockedReq_miss_latency::total      2882682                       # number of LoadLockedReq miss cycles
system.cpu00.dcache.StoreCondReq_miss_latency::cpu00.data       488106                       # number of StoreCondReq miss cycles
system.cpu00.dcache.StoreCondReq_miss_latency::total       488106                       # number of StoreCondReq miss cycles
system.cpu00.dcache.demand_miss_latency::cpu00.data   5918690983                       # number of demand (read+write) miss cycles
system.cpu00.dcache.demand_miss_latency::total   5918690983                       # number of demand (read+write) miss cycles
system.cpu00.dcache.overall_miss_latency::cpu00.data   5918690983                       # number of overall miss cycles
system.cpu00.dcache.overall_miss_latency::total   5918690983                       # number of overall miss cycles
system.cpu00.dcache.ReadReq_accesses::cpu00.data       150512                       # number of ReadReq accesses(hits+misses)
system.cpu00.dcache.ReadReq_accesses::total       150512                       # number of ReadReq accesses(hits+misses)
system.cpu00.dcache.WriteReq_accesses::cpu00.data       118402                       # number of WriteReq accesses(hits+misses)
system.cpu00.dcache.WriteReq_accesses::total       118402                       # number of WriteReq accesses(hits+misses)
system.cpu00.dcache.LoadLockedReq_accesses::cpu00.data         1192                       # number of LoadLockedReq accesses(hits+misses)
system.cpu00.dcache.LoadLockedReq_accesses::total         1192                       # number of LoadLockedReq accesses(hits+misses)
system.cpu00.dcache.StoreCondReq_accesses::cpu00.data         1123                       # number of StoreCondReq accesses(hits+misses)
system.cpu00.dcache.StoreCondReq_accesses::total         1123                       # number of StoreCondReq accesses(hits+misses)
system.cpu00.dcache.demand_accesses::cpu00.data       268914                       # number of demand (read+write) accesses
system.cpu00.dcache.demand_accesses::total       268914                       # number of demand (read+write) accesses
system.cpu00.dcache.overall_accesses::cpu00.data       268914                       # number of overall (read+write) accesses
system.cpu00.dcache.overall_accesses::total       268914                       # number of overall (read+write) accesses
system.cpu00.dcache.ReadReq_miss_rate::cpu00.data     0.054866                       # miss rate for ReadReq accesses
system.cpu00.dcache.ReadReq_miss_rate::total     0.054866                       # miss rate for ReadReq accesses
system.cpu00.dcache.WriteReq_miss_rate::cpu00.data     0.278593                       # miss rate for WriteReq accesses
system.cpu00.dcache.WriteReq_miss_rate::total     0.278593                       # miss rate for WriteReq accesses
system.cpu00.dcache.LoadLockedReq_miss_rate::cpu00.data     0.198826                       # miss rate for LoadLockedReq accesses
system.cpu00.dcache.LoadLockedReq_miss_rate::total     0.198826                       # miss rate for LoadLockedReq accesses
system.cpu00.dcache.StoreCondReq_miss_rate::cpu00.data     0.019590                       # miss rate for StoreCondReq accesses
system.cpu00.dcache.StoreCondReq_miss_rate::total     0.019590                       # miss rate for StoreCondReq accesses
system.cpu00.dcache.demand_miss_rate::cpu00.data     0.153372                       # miss rate for demand accesses
system.cpu00.dcache.demand_miss_rate::total     0.153372                       # miss rate for demand accesses
system.cpu00.dcache.overall_miss_rate::cpu00.data     0.153372                       # miss rate for overall accesses
system.cpu00.dcache.overall_miss_rate::total     0.153372                       # miss rate for overall accesses
system.cpu00.dcache.ReadReq_avg_miss_latency::cpu00.data 51280.402277                       # average ReadReq miss latency
system.cpu00.dcache.ReadReq_avg_miss_latency::total 51280.402277                       # average ReadReq miss latency
system.cpu00.dcache.WriteReq_avg_miss_latency::cpu00.data 166592.415601                       # average WriteReq miss latency
system.cpu00.dcache.WriteReq_avg_miss_latency::total 166592.415601                       # average WriteReq miss latency
system.cpu00.dcache.LoadLockedReq_avg_miss_latency::cpu00.data 12163.215190                       # average LoadLockedReq miss latency
system.cpu00.dcache.LoadLockedReq_avg_miss_latency::total 12163.215190                       # average LoadLockedReq miss latency
system.cpu00.dcache.StoreCondReq_avg_miss_latency::cpu00.data 22186.636364                       # average StoreCondReq miss latency
system.cpu00.dcache.StoreCondReq_avg_miss_latency::total 22186.636364                       # average StoreCondReq miss latency
system.cpu00.dcache.demand_avg_miss_latency::cpu00.data 143504.291121                       # average overall miss latency
system.cpu00.dcache.demand_avg_miss_latency::total 143504.291121                       # average overall miss latency
system.cpu00.dcache.overall_avg_miss_latency::cpu00.data 143504.291121                       # average overall miss latency
system.cpu00.dcache.overall_avg_miss_latency::total 143504.291121                       # average overall miss latency
system.cpu00.dcache.blocked_cycles::no_mshrs       150911                       # number of cycles access was blocked
system.cpu00.dcache.blocked_cycles::no_targets            0                       # number of cycles access was blocked
system.cpu00.dcache.blocked::no_mshrs            2651                       # number of cycles access was blocked
system.cpu00.dcache.blocked::no_targets             0                       # number of cycles access was blocked
system.cpu00.dcache.avg_blocked_cycles::no_mshrs    56.926066                       # average number of cycles each access was blocked
system.cpu00.dcache.avg_blocked_cycles::no_targets          nan                       # average number of cycles each access was blocked
system.cpu00.dcache.fast_writes                     0                       # number of fast writes performed
system.cpu00.dcache.cache_copies                    0                       # number of cache copies performed
system.cpu00.dcache.writebacks::writebacks         8382                       # number of writebacks
system.cpu00.dcache.writebacks::total            8382                       # number of writebacks
system.cpu00.dcache.ReadReq_mshr_hits::cpu00.data         2875                       # number of ReadReq MSHR hits
system.cpu00.dcache.ReadReq_mshr_hits::total         2875                       # number of ReadReq MSHR hits
system.cpu00.dcache.WriteReq_mshr_hits::cpu00.data        26702                       # number of WriteReq MSHR hits
system.cpu00.dcache.WriteReq_mshr_hits::total        26702                       # number of WriteReq MSHR hits
system.cpu00.dcache.LoadLockedReq_mshr_hits::cpu00.data          129                       # number of LoadLockedReq MSHR hits
system.cpu00.dcache.LoadLockedReq_mshr_hits::total          129                       # number of LoadLockedReq MSHR hits
system.cpu00.dcache.demand_mshr_hits::cpu00.data        29577                       # number of demand (read+write) MSHR hits
system.cpu00.dcache.demand_mshr_hits::total        29577                       # number of demand (read+write) MSHR hits
system.cpu00.dcache.overall_mshr_hits::cpu00.data        29577                       # number of overall MSHR hits
system.cpu00.dcache.overall_mshr_hits::total        29577                       # number of overall MSHR hits
system.cpu00.dcache.ReadReq_mshr_misses::cpu00.data         5383                       # number of ReadReq MSHR misses
system.cpu00.dcache.ReadReq_mshr_misses::total         5383                       # number of ReadReq MSHR misses
system.cpu00.dcache.WriteReq_mshr_misses::cpu00.data         6284                       # number of WriteReq MSHR misses
system.cpu00.dcache.WriteReq_mshr_misses::total         6284                       # number of WriteReq MSHR misses
system.cpu00.dcache.LoadLockedReq_mshr_misses::cpu00.data          108                       # number of LoadLockedReq MSHR misses
system.cpu00.dcache.LoadLockedReq_mshr_misses::total          108                       # number of LoadLockedReq MSHR misses
system.cpu00.dcache.StoreCondReq_mshr_misses::cpu00.data           22                       # number of StoreCondReq MSHR misses
system.cpu00.dcache.StoreCondReq_mshr_misses::total           22                       # number of StoreCondReq MSHR misses
system.cpu00.dcache.demand_mshr_misses::cpu00.data        11667                       # number of demand (read+write) MSHR misses
system.cpu00.dcache.demand_mshr_misses::total        11667                       # number of demand (read+write) MSHR misses
system.cpu00.dcache.overall_mshr_misses::cpu00.data        11667                       # number of overall MSHR misses
system.cpu00.dcache.overall_mshr_misses::total        11667                       # number of overall MSHR misses
system.cpu00.dcache.ReadReq_mshr_miss_latency::cpu00.data    245001888                       # number of ReadReq MSHR miss cycles
system.cpu00.dcache.ReadReq_mshr_miss_latency::total    245001888                       # number of ReadReq MSHR miss cycles
system.cpu00.dcache.WriteReq_mshr_miss_latency::cpu00.data   1163674372                       # number of WriteReq MSHR miss cycles
system.cpu00.dcache.WriteReq_mshr_miss_latency::total   1163674372                       # number of WriteReq MSHR miss cycles
system.cpu00.dcache.LoadLockedReq_mshr_miss_latency::cpu00.data      1193562                       # number of LoadLockedReq MSHR miss cycles
system.cpu00.dcache.LoadLockedReq_mshr_miss_latency::total      1193562                       # number of LoadLockedReq MSHR miss cycles
system.cpu00.dcache.StoreCondReq_mshr_miss_latency::cpu00.data       460782                       # number of StoreCondReq MSHR miss cycles
system.cpu00.dcache.StoreCondReq_mshr_miss_latency::total       460782                       # number of StoreCondReq MSHR miss cycles
system.cpu00.dcache.demand_mshr_miss_latency::cpu00.data   1408676260                       # number of demand (read+write) MSHR miss cycles
system.cpu00.dcache.demand_mshr_miss_latency::total   1408676260                       # number of demand (read+write) MSHR miss cycles
system.cpu00.dcache.overall_mshr_miss_latency::cpu00.data   1408676260                       # number of overall MSHR miss cycles
system.cpu00.dcache.overall_mshr_miss_latency::total   1408676260                       # number of overall MSHR miss cycles
system.cpu00.dcache.ReadReq_mshr_miss_rate::cpu00.data     0.035765                       # mshr miss rate for ReadReq accesses
system.cpu00.dcache.ReadReq_mshr_miss_rate::total     0.035765                       # mshr miss rate for ReadReq accesses
system.cpu00.dcache.WriteReq_mshr_miss_rate::cpu00.data     0.053073                       # mshr miss rate for WriteReq accesses
system.cpu00.dcache.WriteReq_mshr_miss_rate::total     0.053073                       # mshr miss rate for WriteReq accesses
system.cpu00.dcache.LoadLockedReq_mshr_miss_rate::cpu00.data     0.090604                       # mshr miss rate for LoadLockedReq accesses
system.cpu00.dcache.LoadLockedReq_mshr_miss_rate::total     0.090604                       # mshr miss rate for LoadLockedReq accesses
system.cpu00.dcache.StoreCondReq_mshr_miss_rate::cpu00.data     0.019590                       # mshr miss rate for StoreCondReq accesses
system.cpu00.dcache.StoreCondReq_mshr_miss_rate::total     0.019590                       # mshr miss rate for StoreCondReq accesses
system.cpu00.dcache.demand_mshr_miss_rate::cpu00.data     0.043386                       # mshr miss rate for demand accesses
system.cpu00.dcache.demand_mshr_miss_rate::total     0.043386                       # mshr miss rate for demand accesses
system.cpu00.dcache.overall_mshr_miss_rate::cpu00.data     0.043386                       # mshr miss rate for overall accesses
system.cpu00.dcache.overall_mshr_miss_rate::total     0.043386                       # mshr miss rate for overall accesses
system.cpu00.dcache.ReadReq_avg_mshr_miss_latency::cpu00.data 45514.004830                       # average ReadReq mshr miss latency
system.cpu00.dcache.ReadReq_avg_mshr_miss_latency::total 45514.004830                       # average ReadReq mshr miss latency
system.cpu00.dcache.WriteReq_avg_mshr_miss_latency::cpu00.data 185180.517505                       # average WriteReq mshr miss latency
system.cpu00.dcache.WriteReq_avg_mshr_miss_latency::total 185180.517505                       # average WriteReq mshr miss latency
[...]
system.tol2bus.pkt_count_system.cpu06.dcache.mem_side::system.l2.cpu_side         1175                       # Packet count per connected master and slave (bytes)
system.tol2bus.pkt_count_system.cpu07.icache.mem_side::system.l2.cpu_side         2595                       # Packet count per connected master and slave (bytes)
system.tol2bus.pkt_count_system.cpu07.dcache.mem_side::system.l2.cpu_side         2389                       # Packet count per connected master and slave (bytes)
system.tol2bus.pkt_count_system.cpu08.icache.mem_side::system.l2.cpu_side         2898                       # Packet count per connected master and slave (bytes)
system.tol2bus.pkt_count_system.cpu08.dcache.mem_side::system.l2.cpu_side         3233                       # Packet count per connected master and slave (bytes)
system.tol2bus.pkt_count_system.cpu09.icache.mem_side::system.l2.cpu_side         1650                       # Packet count per connected master and slave (bytes)
system.tol2bus.pkt_count_system.cpu09.dcache.mem_side::system.l2.cpu_side         1836                       # Packet count per connected master and slave (bytes)
system.tol2bus.pkt_count_system.cpu10.icache.mem_side::system.l2.cpu_side         3175                       # Packet count per connected master and slave (bytes)
system.tol2bus.pkt_count_system.cpu10.dcache.mem_side::system.l2.cpu_side         3782                       # Packet count per connected master and slave (bytes)
system.tol2bus.pkt_count_system.cpu11.icache.mem_side::system.l2.cpu_side         2891                       # Packet count per connected master and slave (bytes)
system.tol2bus.pkt_count_system.cpu11.dcache.mem_side::system.l2.cpu_side         2887                       # Packet count per connected master and slave (bytes)
system.tol2bus.pkt_count_system.cpu12.icache.mem_side::system.l2.cpu_side         1228                       # Packet count per connected master and slave (bytes)
system.tol2bus.pkt_count_system.cpu12.dcache.mem_side::system.l2.cpu_side         1116                       # Packet count per connected master and slave (bytes)
system.tol2bus.pkt_count_system.cpu13.icache.mem_side::system.l2.cpu_side         2771                       # Packet count per connected master and slave (bytes)
system.tol2bus.pkt_count_system.cpu13.dcache.mem_side::system.l2.cpu_side         2682                       # Packet count per connected master and slave (bytes)
system.tol2bus.pkt_count_system.cpu14.icache.mem_side::system.l2.cpu_side         3715                       # Packet count per connected master and slave (bytes)
system.tol2bus.pkt_count_system.cpu14.dcache.mem_side::system.l2.cpu_side         3804                       # Packet count per connected master and slave (bytes)
system.tol2bus.pkt_count_system.cpu15.icache.mem_side::system.l2.cpu_side         3128                       # Packet count per connected master and slave (bytes)
system.tol2bus.pkt_count_system.cpu15.dcache.mem_side::system.l2.cpu_side         3617                       # Packet count per connected master and slave (bytes)
system.tol2bus.pkt_count::total                129419                       # Packet count per connected master and slave (bytes)
system.tol2bus.pkt_size_system.cpu00.icache.mem_side::system.l2.cpu_side       966912                       # Cumulative packet size per connected master and slave (bytes)
system.tol2bus.pkt_size_system.cpu00.dcache.mem_side::system.l2.cpu_side      1267840                       # Cumulative packet size per connected master and slave (bytes)
system.tol2bus.pkt_size_system.cpu01.icache.mem_side::system.l2.cpu_side       125440                       # Cumulative packet size per connected master and slave (bytes)
system.tol2bus.pkt_size_system.cpu01.dcache.mem_side::system.l2.cpu_side        58880                       # Cumulative packet size per connected master and slave (bytes)
system.tol2bus.pkt_size_system.cpu02.icache.mem_side::system.l2.cpu_side        36032                       # Cumulative packet size per connected master and slave (bytes)
system.tol2bus.pkt_size_system.cpu02.dcache.mem_side::system.l2.cpu_side        32448                       # Cumulative packet size per connected master and slave (bytes)
system.tol2bus.pkt_size_system.cpu03.icache.mem_side::system.l2.cpu_side        41664                       # Cumulative packet size per connected master and slave (bytes)
system.tol2bus.pkt_size_system.cpu03.dcache.mem_side::system.l2.cpu_side        25792                       # Cumulative packet size per connected master and slave (bytes)
system.tol2bus.pkt_size_system.cpu04.icache.mem_side::system.l2.cpu_side        31296                       # Cumulative packet size per connected master and slave (bytes)
system.tol2bus.pkt_size_system.cpu04.dcache.mem_side::system.l2.cpu_side        29888                       # Cumulative packet size per connected master and slave (bytes)
system.tol2bus.pkt_size_system.cpu05.icache.mem_side::system.l2.cpu_side       117568                       # Cumulative packet size per connected master and slave (bytes)
system.tol2bus.pkt_size_system.cpu05.dcache.mem_side::system.l2.cpu_side        50752                       # Cumulative packet size per connected master and slave (bytes)
system.tol2bus.pkt_size_system.cpu06.icache.mem_side::system.l2.cpu_side        38848                       # Cumulative packet size per connected master and slave (bytes)
system.tol2bus.pkt_size_system.cpu06.dcache.mem_side::system.l2.cpu_side        32000                       # Cumulative packet size per connected master and slave (bytes)
system.tol2bus.pkt_size_system.cpu07.icache.mem_side::system.l2.cpu_side       100544                       # Cumulative packet size per connected master and slave (bytes)
system.tol2bus.pkt_size_system.cpu07.dcache.mem_side::system.l2.cpu_side        41216                       # Cumulative packet size per connected master and slave (bytes)
system.tol2bus.pkt_size_system.cpu08.icache.mem_side::system.l2.cpu_side       113408                       # Cumulative packet size per connected master and slave (bytes)
system.tol2bus.pkt_size_system.cpu08.dcache.mem_side::system.l2.cpu_side        48384                       # Cumulative packet size per connected master and slave (bytes)
system.tol2bus.pkt_size_system.cpu09.icache.mem_side::system.l2.cpu_side        60608                       # Cumulative packet size per connected master and slave (bytes)
system.tol2bus.pkt_size_system.cpu09.dcache.mem_side::system.l2.cpu_side        31936                       # Cumulative packet size per connected master and slave (bytes)
system.tol2bus.pkt_size_system.cpu10.icache.mem_side::system.l2.cpu_side       124992                       # Cumulative packet size per connected master and slave (bytes)
system.tol2bus.pkt_size_system.cpu10.dcache.mem_side::system.l2.cpu_side        54720                       # Cumulative packet size per connected master and slave (bytes)
system.tol2bus.pkt_size_system.cpu11.icache.mem_side::system.l2.cpu_side       113024                       # Cumulative packet size per connected master and slave (bytes)
system.tol2bus.pkt_size_system.cpu11.dcache.mem_side::system.l2.cpu_side        54144                       # Cumulative packet size per connected master and slave (bytes)
system.tol2bus.pkt_size_system.cpu12.icache.mem_side::system.l2.cpu_side        43200                       # Cumulative packet size per connected master and slave (bytes)
system.tol2bus.pkt_size_system.cpu12.dcache.mem_side::system.l2.cpu_side        29824                       # Cumulative packet size per connected master and slave (bytes)
system.tol2bus.pkt_size_system.cpu13.icache.mem_side::system.l2.cpu_side       108032                       # Cumulative packet size per connected master and slave (bytes)
system.tol2bus.pkt_size_system.cpu13.dcache.mem_side::system.l2.cpu_side        44800                       # Cumulative packet size per connected master and slave (bytes)
system.tol2bus.pkt_size_system.cpu14.icache.mem_side::system.l2.cpu_side       148096                       # Cumulative packet size per connected master and slave (bytes)
system.tol2bus.pkt_size_system.cpu14.dcache.mem_side::system.l2.cpu_side        53824                       # Cumulative packet size per connected master and slave (bytes)
system.tol2bus.pkt_size_system.cpu15.icache.mem_side::system.l2.cpu_side       123008                       # Cumulative packet size per connected master and slave (bytes)
system.tol2bus.pkt_size_system.cpu15.dcache.mem_side::system.l2.cpu_side        51584                       # Cumulative packet size per connected master and slave (bytes)
system.tol2bus.pkt_size::total                4200704                       # Cumulative packet size per connected master and slave (bytes)
system.tol2bus.snoops                           12500                       # Total snoops (count)
system.tol2bus.snoop_fanout::samples            54328                       # Request fanout histogram
system.tol2bus.snoop_fanout::mean            2.426723                       # Request fanout histogram
system.tol2bus.snoop_fanout::stdev           3.788008                       # Request fanout histogram
system.tol2bus.snoop_fanout::underflows             0      0.00%      0.00% # Request fanout histogram
system.tol2bus.snoop_fanout::0                  24772     45.60%     45.60% # Request fanout histogram
system.tol2bus.snoop_fanout::1                  11243     20.69%     66.29% # Request fanout histogram
system.tol2bus.snoop_fanout::2                   3796      6.99%     73.28% # Request fanout histogram
system.tol2bus.snoop_fanout::3                   2166      3.99%     77.27% # Request fanout histogram
system.tol2bus.snoop_fanout::4                   1467      2.70%     79.97% # Request fanout histogram
system.tol2bus.snoop_fanout::5                   1289      2.37%     82.34% # Request fanout histogram
system.tol2bus.snoop_fanout::6                   1266      2.33%     84.67% # Request fanout histogram
system.tol2bus.snoop_fanout::7                   1269      2.34%     87.00% # Request fanout histogram
system.tol2bus.snoop_fanout::8                   1181      2.17%     89.18% # Request fanout histogram
system.tol2bus.snoop_fanout::9                   1046      1.93%     91.10% # Request fanout histogram
system.tol2bus.snoop_fanout::10                   983      1.81%     92.91% # Request fanout histogram
system.tol2bus.snoop_fanout::11                  1005      1.85%     94.76% # Request fanout histogram
system.tol2bus.snoop_fanout::12                   787      1.45%     96.21% # Request fanout histogram
system.tol2bus.snoop_fanout::13                   783      1.44%     97.65% # Request fanout histogram
system.tol2bus.snoop_fanout::14                   783      1.44%     99.09% # Request fanout histogram
system.tol2bus.snoop_fanout::15                   490      0.90%    100.00% # Request fanout histogram
system.tol2bus.snoop_fanout::16                     2      0.00%    100.00% # Request fanout histogram
system.tol2bus.snoop_fanout::17                     0      0.00%    100.00% # Request fanout histogram
system.tol2bus.snoop_fanout::18                     0      0.00%    100.00% # Request fanout histogram
system.tol2bus.snoop_fanout::19                     0      0.00%    100.00% # Request fanout histogram
system.tol2bus.snoop_fanout::20                     0      0.00%    100.00% # Request fanout histogram
system.tol2bus.snoop_fanout::21                     0      0.00%    100.00% # Request fanout histogram
system.tol2bus.snoop_fanout::22                     0      0.00%    100.00% # Request fanout histogram
system.tol2bus.snoop_fanout::23                     0      0.00%    100.00% # Request fanout histogram
system.tol2bus.snoop_fanout::24                     0      0.00%    100.00% # Request fanout histogram
system.tol2bus.snoop_fanout::25                     0      0.00%    100.00% # Request fanout histogram
system.tol2bus.snoop_fanout::26                     0      0.00%    100.00% # Request fanout histogram
system.tol2bus.snoop_fanout::27                     0      0.00%    100.00% # Request fanout histogram
system.tol2bus.snoop_fanout::28                     0      0.00%    100.00% # Request fanout histogram
system.tol2bus.snoop_fanout::29                     0      0.00%    100.00% # Request fanout histogram
system.tol2bus.snoop_fanout::30                     0      0.00%    100.00% # Request fanout histogram
system.tol2bus.snoop_fanout::31                     0      0.00%    100.00% # Request fanout histogram
system.tol2bus.snoop_fanout::32                     0      0.00%    100.00% # Request fanout histogram
system.tol2bus.snoop_fanout::overflows              0      0.00%    100.00% # Request fanout histogram
system.tol2bus.snoop_fanout::min_value              0                       # Request fanout histogram
system.tol2bus.snoop_fanout::max_value             16                       # Request fanout histogram
system.tol2bus.snoop_fanout::total              54328                       # Request fanout histogram
system.tol2bus.reqLayer0.occupancy          173168057                       # Layer occupancy (ticks)
system.tol2bus.reqLayer0.utilization             12.8                       # Layer utilization (%)
system.tol2bus.respLayer0.occupancy          29482093                       # Layer occupancy (ticks)
system.tol2bus.respLayer0.utilization             2.2                       # Layer utilization (%)
system.tol2bus.respLayer1.occupancy          43956015                       # Layer occupancy (ticks)
system.tol2bus.respLayer1.utilization             3.3                       # Layer utilization (%)
system.tol2bus.respLayer2.occupancy           4596073                       # Layer occupancy (ticks)
system.tol2bus.respLayer2.utilization             0.3                       # Layer utilization (%)
system.tol2bus.respLayer3.occupancy           7325903                       # Layer occupancy (ticks)
system.tol2bus.respLayer3.utilization             0.5                       # Layer utilization (%)
system.tol2bus.respLayer4.occupancy           1835783                       # Layer occupancy (ticks)
system.tol2bus.respLayer4.utilization             0.1                       # Layer utilization (%)
system.tol2bus.respLayer5.occupancy           1776005                       # Layer occupancy (ticks)
system.tol2bus.respLayer5.utilization             0.1                       # Layer utilization (%)
system.tol2bus.respLayer6.occupancy           2045181                       # Layer occupancy (ticks)
system.tol2bus.respLayer6.utilization             0.2                       # Layer utilization (%)
system.tol2bus.respLayer7.occupancy           1779625                       # Layer occupancy (ticks)
system.tol2bus.respLayer7.utilization             0.1                       # Layer utilization (%)
system.tol2bus.respLayer8.occupancy           1666326                       # Layer occupancy (ticks)
system.tol2bus.respLayer8.utilization             0.1                       # Layer utilization (%)
system.tol2bus.respLayer9.occupancy           1733775                       # Layer occupancy (ticks)
system.tol2bus.respLayer9.utilization             0.1                       # Layer utilization (%)
system.tol2bus.respLayer10.occupancy          4428670                       # Layer occupancy (ticks)
system.tol2bus.respLayer10.utilization            0.3                       # Layer utilization (%)
system.tol2bus.respLayer11.occupancy          6264540                       # Layer occupancy (ticks)
system.tol2bus.respLayer11.utilization            0.5                       # Layer utilization (%)
system.tol2bus.respLayer12.occupancy          1948555                       # Layer occupancy (ticks)
system.tol2bus.respLayer12.utilization            0.1                       # Layer utilization (%)
system.tol2bus.respLayer13.occupancy          1892742                       # Layer occupancy (ticks)
system.tol2bus.respLayer13.utilization            0.1                       # Layer utilization (%)
system.tol2bus.respLayer14.occupancy          3901290                       # Layer occupancy (ticks)
system.tol2bus.respLayer14.utilization            0.3                       # Layer utilization (%)
system.tol2bus.respLayer15.occupancy          4343252                       # Layer occupancy (ticks)
system.tol2bus.respLayer15.utilization            0.3                       # Layer utilization (%)
system.tol2bus.respLayer16.occupancy          4285235                       # Layer occupancy (ticks)
system.tol2bus.respLayer16.utilization            0.3                       # Layer utilization (%)
system.tol2bus.respLayer17.occupancy          5674609                       # Layer occupancy (ticks)
system.tol2bus.respLayer17.utilization            0.4                       # Layer utilization (%)
system.tol2bus.respLayer18.occupancy          2714211                       # Layer occupancy (ticks)
system.tol2bus.respLayer18.utilization            0.2                       # Layer utilization (%)
system.tol2bus.respLayer19.occupancy          2646406                       # Layer occupancy (ticks)
system.tol2bus.respLayer19.utilization            0.2                       # Layer utilization (%)
system.tol2bus.respLayer20.occupancy          4637326                       # Layer occupancy (ticks)
system.tol2bus.respLayer20.utilization            0.3                       # Layer utilization (%)
system.tol2bus.respLayer21.occupancy          6623494                       # Layer occupancy (ticks)
system.tol2bus.respLayer21.utilization            0.5                       # Layer utilization (%)
system.tol2bus.respLayer22.occupancy          4278180                       # Layer occupancy (ticks)
system.tol2bus.respLayer22.utilization            0.3                       # Layer utilization (%)
system.tol2bus.respLayer23.occupancy          5016306                       # Layer occupancy (ticks)
system.tol2bus.respLayer23.utilization            0.4                       # Layer utilization (%)
system.tol2bus.respLayer24.occupancy          2116216                       # Layer occupancy (ticks)
system.tol2bus.respLayer24.utilization            0.2                       # Layer utilization (%)
system.tol2bus.respLayer25.occupancy          1762837                       # Layer occupancy (ticks)
system.tol2bus.respLayer25.utilization            0.1                       # Layer utilization (%)
system.tol2bus.respLayer26.occupancy          4151556                       # Layer occupancy (ticks)
system.tol2bus.respLayer26.utilization            0.3                       # Layer utilization (%)
system.tol2bus.respLayer27.occupancy          4756312                       # Layer occupancy (ticks)
system.tol2bus.respLayer27.utilization            0.4                       # Layer utilization (%)
system.tol2bus.respLayer28.occupancy          5320889                       # Layer occupancy (ticks)
system.tol2bus.respLayer28.utilization            0.4                       # Layer utilization (%)
system.tol2bus.respLayer29.occupancy          6752030                       # Layer occupancy (ticks)
system.tol2bus.respLayer29.utilization            0.5                       # Layer utilization (%)
system.tol2bus.respLayer30.occupancy          4551815                       # Layer occupancy (ticks)
system.tol2bus.respLayer30.utilization            0.3                       # Layer utilization (%)
system.tol2bus.respLayer31.occupancy          6417862                       # Layer occupancy (ticks)
system.tol2bus.respLayer31.utilization            0.5                       # Layer utilization (%)

---------- End Simulation Statistics   ----------
