
---------- Begin Simulation Statistics ----------
sim_seconds                                  0.001328                       # Number of seconds simulated
sim_ticks                                  1327719600                       # Number of ticks simulated
final_tick                                 1327719600                       # Number of ticks from beginning of simulation (restored from checkpoints and never reset)
sim_freq                                 1000000000000                       # Frequency of simulated ticks
host_inst_rate                                 220602                       # Simulator instruction rate (inst/s)
host_op_rate                                   220601                       # Simulator op (including micro ops) rate (op/s)
host_tick_rate                              108991877                       # Simulator tick rate (ticks/s)
host_mem_usage                                 694736                       # Number of bytes of host memory used
host_seconds                                    12.18                       # Real time elapsed on the host
sim_insts                                     2687324                       # Number of instructions simulated
sim_ops                                       2687324                       # Number of ops (including micro ops) simulated
system.voltage_domain.voltage                       1                       # Voltage in Volts
system.clk_domain.clock                          1000                       # Clock period in ticks
system.mem_ctrls.bytes_read::cpu00.inst        123456                       # Number of bytes read from this memory
system.mem_ctrls.bytes_read::cpu00.data        378624                       # Number of bytes read from this memory
system.mem_ctrls.bytes_read::cpu01.inst         11392                       # Number of bytes read from this memory
system.mem_ctrls.bytes_read::cpu01.data          6912                       # Number of bytes read from this memory
system.mem_ctrls.bytes_read::cpu02.inst           704                       # Number of bytes read from this memory
system.mem_ctrls.bytes_read::cpu02.data          6528                       # Number of bytes read from this memory
system.mem_ctrls.bytes_read::cpu03.inst           768                       # Number of bytes read from this memory
system.mem_ctrls.bytes_read::cpu03.data          6336                       # Number of bytes read from this memory
system.mem_ctrls.bytes_read::cpu04.inst          4352                       # Number of bytes read from this memory
system.mem_ctrls.bytes_read::cpu04.data          6784                       # Number of bytes read from this memory
system.mem_ctrls.bytes_read::cpu05.inst           384                       # Number of bytes read from this memory
system.mem_ctrls.bytes_read::cpu05.data          5504                       # Number of bytes read from this memory
system.mem_ctrls.bytes_read::cpu06.inst          3520                       # Number of bytes read from this memory
system.mem_ctrls.bytes_read::cpu06.data          6528                       # Number of bytes read from this memory
system.mem_ctrls.bytes_read::cpu07.inst          1280                       # Number of bytes read from this memory
system.mem_ctrls.bytes_read::cpu07.data          6400                       # Number of bytes read from this memory
system.mem_ctrls.bytes_read::cpu08.inst           832                       # Number of bytes read from this memory
system.mem_ctrls.bytes_read::cpu08.data          5376                       # Number of bytes read from this memory
system.mem_ctrls.bytes_read::cpu09.inst           192                       # Number of bytes read from this memory
system.mem_ctrls.bytes_read::cpu09.data          5504                       # Number of bytes read from this memory
system.mem_ctrls.bytes_read::cpu10.inst           704                       # Number of bytes read from this memory
system.mem_ctrls.bytes_read::cpu10.data          5824                       # Number of bytes read from this memory
system.mem_ctrls.bytes_read::cpu11.inst           896                       # Number of bytes read from this memory
system.mem_ctrls.bytes_read::cpu11.data          5568                       # Number of bytes read from this memory
system.mem_ctrls.bytes_read::cpu12.inst           128                       # Number of bytes read from this memory
system.mem_ctrls.bytes_read::cpu12.data          5440                       # Number of bytes read from this memory
system.mem_ctrls.bytes_read::cpu13.inst          1856                       # Number of bytes read from this memory
system.mem_ctrls.bytes_read::cpu13.data          5696                       # Number of bytes read from this memory
system.mem_ctrls.bytes_read::cpu14.inst          1664                       # Number of bytes read from this memory
system.mem_ctrls.bytes_read::cpu14.data          6528                       # Number of bytes read from this memory
system.mem_ctrls.bytes_read::cpu15.inst          1088                       # Number of bytes read from this memory
system.mem_ctrls.bytes_read::cpu15.data          6784                       # Number of bytes read from this memory
system.mem_ctrls.bytes_read::total             623552                       # Number of bytes read from this memory
system.mem_ctrls.bytes_inst_read::cpu00.inst       123456                       # Number of instructions bytes read from this memory
system.mem_ctrls.bytes_inst_read::cpu01.inst        11392                       # Number of instructions bytes read from this memory
system.mem_ctrls.bytes_inst_read::cpu02.inst          704                       # Number of instructions bytes read from this memory
system.mem_ctrls.bytes_inst_read::cpu03.inst          768                       # Number of instructions bytes read from this memory
system.mem_ctrls.bytes_inst_read::cpu04.inst         4352                       # Number of instructions bytes read from this memory
system.mem_ctrls.bytes_inst_read::cpu05.inst          384                       # Number of instructions bytes read from this memory
system.mem_ctrls.bytes_inst_read::cpu06.inst         3520                       # Number of instructions bytes read from this memory
system.mem_ctrls.bytes_inst_read::cpu07.inst         1280                       # Number of instructions bytes read from this memory
system.mem_ctrls.bytes_inst_read::cpu08.inst          832                       # Number of instructions bytes read from this memory
system.mem_ctrls.bytes_inst_read::cpu09.inst          192                       # Number of instructions bytes read from this memory
system.mem_ctrls.bytes_inst_read::cpu10.inst          704                       # Number of instructions bytes read from this memory
system.mem_ctrls.bytes_inst_read::cpu11.inst          896                       # Number of instructions bytes read from this memory
system.mem_ctrls.bytes_inst_read::cpu12.inst          128                       # Number of instructions bytes read from this memory
system.mem_ctrls.bytes_inst_read::cpu13.inst         1856                       # Number of instructions bytes read from this memory
system.mem_ctrls.bytes_inst_read::cpu14.inst         1664                       # Number of instructions bytes read from this memory
system.mem_ctrls.bytes_inst_read::cpu15.inst         1088                       # Number of instructions bytes read from this memory
system.mem_ctrls.bytes_inst_read::total        153216                       # Number of instructions bytes read from this memory
system.mem_ctrls.bytes_written::writebacks        78848                       # Number of bytes written to this memory
system.mem_ctrls.bytes_written::total           78848                       # Number of bytes written to this memory
system.mem_ctrls.num_reads::cpu00.inst           1929                       # Number of read requests responded to by this memory
system.mem_ctrls.num_reads::cpu00.data           5916                       # Number of read requests responded to by this memory
system.mem_ctrls.num_reads::cpu01.inst            178                       # Number of read requests responded to by this memory
system.mem_ctrls.num_reads::cpu01.data            108                       # Number of read requests responded to by this memory
system.mem_ctrls.num_reads::cpu02.inst             11                       # Number of read requests responded to by this memory
system.mem_ctrls.num_reads::cpu02.data            102                       # Number of read requests responded to by this memory
system.mem_ctrls.num_reads::cpu03.inst             12                       # Number of read requests responded to by this memory
system.mem_ctrls.num_reads::cpu03.data             99                       # Number of read requests responded to by this memory
system.mem_ctrls.num_reads::cpu04.inst             68                       # Number of read requests responded to by this memory
system.mem_ctrls.num_reads::cpu04.data            106                       # Number of read requests responded to by this memory
system.mem_ctrls.num_reads::cpu05.inst              6                       # Number of read requests responded to by this memory
system.mem_ctrls.num_reads::cpu05.data             86                       # Number of read requests responded to by this memory
system.mem_ctrls.num_reads::cpu06.inst             55                       # Number of read requests responded to by this memory
system.mem_ctrls.num_reads::cpu06.data            102                       # Number of read requests responded to by this memory
system.mem_ctrls.num_reads::cpu07.inst             20                       # Number of read requests responded to by this memory
system.mem_ctrls.num_reads::cpu07.data            100                       # Number of read requests responded to by this memory
system.mem_ctrls.num_reads::cpu08.inst             13                       # Number of read requests responded to by this memory
system.mem_ctrls.num_reads::cpu08.data             84                       # Number of read requests responded to by this memory
system.mem_ctrls.num_reads::cpu09.inst              3                       # Number of read requests responded to by this memory
system.mem_ctrls.num_reads::cpu09.data             86                       # Number of read requests responded to by this memory
system.mem_ctrls.num_reads::cpu10.inst             11                       # Number of read requests responded to by this memory
system.mem_ctrls.num_reads::cpu10.data             91                       # Number of read requests responded to by this memory
system.mem_ctrls.num_reads::cpu11.inst             14                       # Number of read requests responded to by this memory
system.mem_ctrls.num_reads::cpu11.data             87                       # Number of read requests responded to by this memory
system.mem_ctrls.num_reads::cpu12.inst              2                       # Number of read requests responded to by this memory
system.mem_ctrls.num_reads::cpu12.data             85                       # Number of read requests responded to by this memory
system.mem_ctrls.num_reads::cpu13.inst             29                       # Number of read requests responded to by this memory
system.mem_ctrls.num_reads::cpu13.data             89                       # Number of read requests responded to by this memory
system.mem_ctrls.num_reads::cpu14.inst             26                       # Number of read requests responded to by this memory
system.mem_ctrls.num_reads::cpu14.data            102                       # Number of read requests responded to by this memory
system.mem_ctrls.num_reads::cpu15.inst             17                       # Number of read requests responded to by this memory
system.mem_ctrls.num_reads::cpu15.data            106                       # Number of read requests responded to by this memory
system.mem_ctrls.num_reads::total                9743                       # Number of read requests responded to by this memory
system.mem_ctrls.num_writes::writebacks          1232                       # Number of write requests responded to by this memory
system.mem_ctrls.num_writes::total               1232                       # Number of write requests responded to by this memory
system.mem_ctrls.bw_read::cpu00.inst         92983488                       # Total read bandwidth from this memory (bytes/s)
system.mem_ctrls.bw_read::cpu00.data        285168646                       # Total read bandwidth from this memory (bytes/s)
system.mem_ctrls.bw_read::cpu01.inst          8580125                       # Total read bandwidth from this memory (bytes/s)
system.mem_ctrls.bw_read::cpu01.data          5205918                       # Total read bandwidth from this memory (bytes/s)
system.mem_ctrls.bw_read::cpu02.inst           530232                       # Total read bandwidth from this memory (bytes/s)
system.mem_ctrls.bw_read::cpu02.data          4916701                       # Total read bandwidth from this memory (bytes/s)
system.mem_ctrls.bw_read::cpu03.inst           578435                       # Total read bandwidth from this memory (bytes/s)
system.mem_ctrls.bw_read::cpu03.data          4772092                       # Total read bandwidth from this memory (bytes/s)
system.mem_ctrls.bw_read::cpu04.inst          3277801                       # Total read bandwidth from this memory (bytes/s)
system.mem_ctrls.bw_read::cpu04.data          5109513                       # Total read bandwidth from this memory (bytes/s)
system.mem_ctrls.bw_read::cpu05.inst           289218                       # Total read bandwidth from this memory (bytes/s)
system.mem_ctrls.bw_read::cpu05.data          4145454                       # Total read bandwidth from this memory (bytes/s)
system.mem_ctrls.bw_read::cpu06.inst          2651162                       # Total read bandwidth from this memory (bytes/s)
system.mem_ctrls.bw_read::cpu06.data          4916701                       # Total read bandwidth from this memory (bytes/s)
system.mem_ctrls.bw_read::cpu07.inst           964059                       # Total read bandwidth from this memory (bytes/s)
system.mem_ctrls.bw_read::cpu07.data          4820295                       # Total read bandwidth from this memory (bytes/s)
system.mem_ctrls.bw_read::cpu08.inst           626638                       # Total read bandwidth from this memory (bytes/s)
system.mem_ctrls.bw_read::cpu08.data          4049048                       # Total read bandwidth from this memory (bytes/s)
system.mem_ctrls.bw_read::cpu09.inst           144609                       # Total read bandwidth from this memory (bytes/s)
system.mem_ctrls.bw_read::cpu09.data          4145454                       # Total read bandwidth from this memory (bytes/s)
system.mem_ctrls.bw_read::cpu10.inst           530232                       # Total read bandwidth from this memory (bytes/s)
system.mem_ctrls.bw_read::cpu10.data          4386468                       # Total read bandwidth from this memory (bytes/s)
system.mem_ctrls.bw_read::cpu11.inst           674841                       # Total read bandwidth from this memory (bytes/s)
system.mem_ctrls.bw_read::cpu11.data          4193657                       # Total read bandwidth from this memory (bytes/s)
system.mem_ctrls.bw_read::cpu12.inst            96406                       # Total read bandwidth from this memory (bytes/s)
system.mem_ctrls.bw_read::cpu12.data          4097251                       # Total read bandwidth from this memory (bytes/s)
system.mem_ctrls.bw_read::cpu13.inst          1397886                       # Total read bandwidth from this memory (bytes/s)
system.mem_ctrls.bw_read::cpu13.data          4290062                       # Total read bandwidth from this memory (bytes/s)
system.mem_ctrls.bw_read::cpu14.inst          1253277                       # Total read bandwidth from this memory (bytes/s)
system.mem_ctrls.bw_read::cpu14.data          4916701                       # Total read bandwidth from this memory (bytes/s)
system.mem_ctrls.bw_read::cpu15.inst           819450                       # Total read bandwidth from this memory (bytes/s)
system.mem_ctrls.bw_read::cpu15.data          5109513                       # Total read bandwidth from this memory (bytes/s)
system.mem_ctrls.bw_read::total             469641331                       # Total read bandwidth from this memory (bytes/s)
system.mem_ctrls.bw_inst_read::cpu00.inst     92983488                       # Instruction read bandwidth from this memory (bytes/s)
system.mem_ctrls.bw_inst_read::cpu01.inst      8580125                       # Instruction read bandwidth from this memory (bytes/s)
system.mem_ctrls.bw_inst_read::cpu02.inst       530232                       # Instruction read bandwidth from this memory (bytes/s)
system.mem_ctrls.bw_inst_read::cpu03.inst       578435                       # Instruction read bandwidth from this memory (bytes/s)
system.mem_ctrls.bw_inst_read::cpu04.inst      3277801                       # Instruction read bandwidth from this memory (bytes/s)
system.mem_ctrls.bw_inst_read::cpu05.inst       289218                       # Instruction read bandwidth from this memory (bytes/s)
system.mem_ctrls.bw_inst_read::cpu06.inst      2651162                       # Instruction read bandwidth from this memory (bytes/s)
system.mem_ctrls.bw_inst_read::cpu07.inst       964059                       # Instruction read bandwidth from this memory (bytes/s)
system.mem_ctrls.bw_inst_read::cpu08.inst       626638                       # Instruction read bandwidth from this memory (bytes/s)
system.mem_ctrls.bw_inst_read::cpu09.inst       144609                       # Instruction read bandwidth from this memory (bytes/s)
system.mem_ctrls.bw_inst_read::cpu10.inst       530232                       # Instruction read bandwidth from this memory (bytes/s)
system.mem_ctrls.bw_inst_read::cpu11.inst       674841                       # Instruction read bandwidth from this memory (bytes/s)
system.mem_ctrls.bw_inst_read::cpu12.inst        96406                       # Instruction read bandwidth from this memory (bytes/s)
system.mem_ctrls.bw_inst_read::cpu13.inst      1397886                       # Instruction read bandwidth from this memory (bytes/s)
system.mem_ctrls.bw_inst_read::cpu14.inst      1253277                       # Instruction read bandwidth from this memory (bytes/s)
system.mem_ctrls.bw_inst_read::cpu15.inst       819450                       # Instruction read bandwidth from this memory (bytes/s)
system.mem_ctrls.bw_inst_read::total        115397860                       # Instruction read bandwidth from this memory (bytes/s)
system.mem_ctrls.bw_write::writebacks        59386033                       # Write bandwidth from this memory (bytes/s)
system.mem_ctrls.bw_write::total             59386033                       # Write bandwidth from this memory (bytes/s)
system.mem_ctrls.bw_total::writebacks        59386033                       # Total bandwidth to/from this memory (bytes/s)
system.mem_ctrls.bw_total::cpu00.inst        92983488                       # Total bandwidth to/from this memory (bytes/s)
system.mem_ctrls.bw_total::cpu00.data       285168646                       # Total bandwidth to/from this memory (bytes/s)
system.mem_ctrls.bw_total::cpu01.inst         8580125                       # Total bandwidth to/from this memory (bytes/s)
system.mem_ctrls.bw_total::cpu01.data         5205918                       # Total bandwidth to/from this memory (bytes/s)
system.mem_ctrls.bw_total::cpu02.inst          530232                       # Total bandwidth to/from this memory (bytes/s)
system.mem_ctrls.bw_total::cpu02.data         4916701                       # Total bandwidth to/from this memory (bytes/s)
system.mem_ctrls.bw_total::cpu03.inst          578435                       # Total bandwidth to/from this memory (bytes/s)
system.mem_ctrls.bw_total::cpu03.data         4772092                       # Total bandwidth to/from this memory (bytes/s)
system.mem_ctrls.bw_total::cpu04.inst         3277801                       # Total bandwidth to/from this memory (bytes/s)
system.mem_ctrls.bw_total::cpu04.data         5109513                       # Total bandwidth to/from this memory (bytes/s)
system.mem_ctrls.bw_total::cpu05.inst          289218                       # Total bandwidth to/from this memory (bytes/s)
system.mem_ctrls.bw_total::cpu05.data         4145454                       # Total bandwidth to/from this memory (bytes/s)
system.mem_ctrls.bw_total::cpu06.inst         2651162                       # Total bandwidth to/from this memory (bytes/s)
system.mem_ctrls.bw_total::cpu06.data         4916701                       # Total bandwidth to/from this memory (bytes/s)
system.mem_ctrls.bw_total::cpu07.inst          964059                       # Total bandwidth to/from this memory (bytes/s)
system.mem_ctrls.bw_total::cpu07.data         4820295                       # Total bandwidth to/from this memory (bytes/s)
system.mem_ctrls.bw_total::cpu08.inst          626638                       # Total bandwidth to/from this memory (bytes/s)
system.mem_ctrls.bw_total::cpu08.data         4049048                       # Total bandwidth to/from this memory (bytes/s)
system.mem_ctrls.bw_total::cpu09.inst          144609                       # Total bandwidth to/from this memory (bytes/s)
system.mem_ctrls.bw_total::cpu09.data         4145454                       # Total bandwidth to/from this memory (bytes/s)
system.mem_ctrls.bw_total::cpu10.inst          530232                       # Total bandwidth to/from this memory (bytes/s)
system.mem_ctrls.bw_total::cpu10.data         4386468                       # Total bandwidth to/from this memory (bytes/s)
system.mem_ctrls.bw_total::cpu11.inst          674841                       # Total bandwidth to/from this memory (bytes/s)
system.mem_ctrls.bw_total::cpu11.data         4193657                       # Total bandwidth to/from this memory (bytes/s)
system.mem_ctrls.bw_total::cpu12.inst           96406                       # Total bandwidth to/from this memory (bytes/s)
system.mem_ctrls.bw_total::cpu12.data         4097251                       # Total bandwidth to/from this memory (bytes/s)
system.mem_ctrls.bw_total::cpu13.inst         1397886                       # Total bandwidth to/from this memory (bytes/s)
system.mem_ctrls.bw_total::cpu13.data         4290062                       # Total bandwidth to/from this memory (bytes/s)
system.mem_ctrls.bw_total::cpu14.inst         1253277                       # Total bandwidth to/from this memory (bytes/s)
system.mem_ctrls.bw_total::cpu14.data         4916701                       # Total bandwidth to/from this memory (bytes/s)
system.mem_ctrls.bw_total::cpu15.inst          819450                       # Total bandwidth to/from this memory (bytes/s)
system.mem_ctrls.bw_total::cpu15.data         5109513                       # Total bandwidth to/from this memory (bytes/s)
system.mem_ctrls.bw_total::total            529027364                       # Total bandwidth to/from this memory (bytes/s)
system.cpu00.branchPred.lookups                133737                       # Number of BP lookups
system.cpu00.branchPred.condPredicted           74718                       # Number of conditional branches predicted
system.cpu00.branchPred.condIncorrect            5784                       # Number of conditional branches incorrect
system.cpu00.branchPred.BTBLookups              89431                       # Number of BTB lookups
system.cpu00.branchPred.BTBHits                 67093                       # Number of BTB hits
system.cpu00.branchPred.BTBCorrect                  0                       # Number of correct BTB predictions (this stat may not work properly.
system.cpu00.branchPred.BTBHitPct           75.022084                       # BTB Hit Percentage
system.cpu00.branchPred.usedRAS                 26641                       # Number of times the RAS was used to get a target.
system.cpu00.branchPred.RASInCorrect               94                       # Number of incorrect RAS predictions.
system.cpu00.branchPred.indirectLookups          3674                       # Number of indirect predictor lookups.
system.cpu00.branchPred.indirectHits             2896                       # Number of indirect target hits.
system.cpu00.branchPred.indirectMisses            778                       # Number of indirect misses.
system.cpu00.branchPredindirectMispredicted          250                       # Number of mispredicted indirect branches.
system.cpu_voltage_domain.voltage                   1                       # Voltage in Volts
system.cpu_clk_domain.clock                      1161                       # Clock period in ticks
system.cpu00.dtb.fetch_hits                         0                       # ITB hits
system.cpu00.dtb.fetch_misses                       0                       # ITB misses
system.cpu00.dtb.fetch_acv                          0                       # ITB acv
system.cpu00.dtb.fetch_accesses                     0                       # ITB accesses
system.cpu00.dtb.read_hits                     183585                       # DTB read hits
system.cpu00.dtb.read_misses                      627                       # DTB read misses
system.cpu00.dtb.read_acv                           0                       # DTB read access violations
system.cpu00.dtb.read_accesses                 184212                       # DTB read accesses
system.cpu00.dtb.write_hits                    128015                       # DTB write hits
system.cpu00.dtb.write_misses                    1130                       # DTB write misses
system.cpu00.dtb.write_acv                          0                       # DTB write access violations
system.cpu00.dtb.write_accesses                129145                       # DTB write accesses
system.cpu00.dtb.data_hits                     311600                       # DTB hits
system.cpu00.dtb.data_misses                     1757                       # DTB misses
system.cpu00.dtb.data_acv                           0                       # DTB access violations
system.cpu00.dtb.data_accesses                 313357                       # DTB accesses
system.cpu00.itb.fetch_hits                    150527                       # ITB hits
system.cpu00.itb.fetch_misses                     150                       # ITB misses
system.cpu00.itb.fetch_acv                          0                       # ITB acv
system.cpu00.itb.fetch_accesses                150677                       # ITB accesses
system.cpu00.itb.read_hits                          0                       # DTB read hits
system.cpu00.itb.read_misses                        0                       # DTB read misses
system.cpu00.itb.read_acv                           0                       # DTB read access violations
system.cpu00.itb.read_accesses                      0                       # DTB read accesses
system.cpu00.itb.write_hits                         0                       # DTB write hits
system.cpu00.itb.write_misses                       0                       # DTB write misses
system.cpu00.itb.write_acv                          0                       # DTB write access violations
system.cpu00.itb.write_accesses                     0                       # DTB write accesses
system.cpu00.itb.data_hits                          0                       # DTB hits
system.cpu00.itb.data_misses                        0                       # DTB misses
system.cpu00.itb.data_acv                           0                       # DTB access violations
system.cpu00.itb.data_accesses                      0                       # DTB accesses
system.cpu00.workload.num_syscalls               3107                       # Number of system calls
system.cpu00.numCycles                        1051775                       # number of cpu cycles simulated
system.cpu00.numWorkItemsStarted                    0                       # number of work items this cpu started
system.cpu00.numWorkItemsCompleted                  0                       # number of work items this cpu completed
system.cpu00.fetch.icacheStallCycles            89017                       # Number of cycles fetch is stalled on an Icache miss
system.cpu00.fetch.Insts                      1196924                       # Number of instructions fetch has processed
system.cpu00.fetch.Branches                    133737                       # Number of branches that fetch encountered
system.cpu00.fetch.predictedBranches            96630                       # Number of branches that fetch has predicted taken
system.cpu00.fetch.Cycles                      738204                       # Number of cycles fetch has run and was not squashing or blocked
system.cpu00.fetch.SquashCycles                 12946                       # Number of cycles fetch has spent squashing
system.cpu00.fetch.MiscStallCycles                535                       # Number of cycles fetch has spent waiting on interrupts, or bad addresses, or out of MSHRs
system.cpu00.fetch.PendingTrapStallCycles         6394                       # Number of stall cycles due to pending traps
system.cpu00.fetch.IcacheWaitRetryStallCycles          791                       # Number of stall cycles due to full MSHR
system.cpu00.fetch.CacheLines                  150527                       # Number of cache lines fetched
system.cpu00.fetch.IcacheSquashes                2725                       # Number of outstanding Icache misses that were squashed
system.cpu00.fetch.rateDist::samples           841414                       # Number of instructions fetched each cycle (Total)
system.cpu00.fetch.rateDist::mean            1.422515                       # Number of instructions fetched each cycle (Total)
system.cpu00.fetch.rateDist::stdev           2.694734                       # Number of instructions fetched each cycle (Total)
system.cpu00.fetch.rateDist::underflows             0      0.00%      0.00% # Number of instructions fetched each cycle (Total)
system.cpu00.fetch.rateDist::0                 621024     73.81%     73.81% # Number of instructions fetched each cycle (Total)
system.cpu00.fetch.rateDist::1                  16647      1.98%     75.79% # Number of instructions fetched each cycle (Total)
system.cpu00.fetch.rateDist::2                  18698      2.22%     78.01% # Number of instructions fetched each cycle (Total)
system.cpu00.fetch.rateDist::3                  17450      2.07%     80.08% # Number of instructions fetched each cycle (Total)
system.cpu00.fetch.rateDist::4                  38042      4.52%     84.60% # Number of instructions fetched each cycle (Total)
system.cpu00.fetch.rateDist::5                  16197      1.92%     86.53% # Number of instructions fetched each cycle (Total)
system.cpu00.fetch.rateDist::6                  18909      2.25%     88.78% # Number of instructions fetched each cycle (Total)
system.cpu00.fetch.rateDist::7                  11652      1.38%     90.16% # Number of instructions fetched each cycle (Total)
system.cpu00.fetch.rateDist::8                  82795      9.84%    100.00% # Number of instructions fetched each cycle (Total)
system.cpu00.fetch.rateDist::overflows              0      0.00%    100.00% # Number of instructions fetched each cycle (Total)
system.cpu00.fetch.rateDist::min_value              0                       # Number of instructions fetched each cycle (Total)
system.cpu00.fetch.rateDist::max_value              8                       # Number of instructions fetched each cycle (Total)
system.cpu00.fetch.rateDist::total             841414                       # Number of instructions fetched each cycle (Total)
system.cpu00.fetch.branchRate                0.127154                       # Number of branch fetches per cycle
system.cpu00.fetch.rate                      1.138004                       # Number of inst fetches per cycle
system.cpu00.decode.IdleCycles                  95559                       # Number of cycles decode is idle
system.cpu00.decode.BlockedCycles              577728                       # Number of cycles decode is blocked
system.cpu00.decode.RunCycles                  128407                       # Number of cycles decode is running
system.cpu00.decode.UnblockCycles               34977                       # Number of cycles decode is unblocking
system.cpu00.decode.SquashCycles                 4743                       # Number of cycles decode is squashing
system.cpu00.decode.BranchResolved              26494                       # Number of times decode resolved a branch
system.cpu00.decode.BranchMispred                1774                       # Number of times decode detected a branch misprediction
system.cpu00.decode.DecodedInsts              1128229                       # Number of instructions handled by decode
system.cpu00.decode.SquashedInsts                7291                       # Number of squashed instructions handled by decode
system.cpu00.rename.SquashCycles                 4743                       # Number of cycles rename is squashing
system.cpu00.rename.IdleCycles                 111839                       # Number of cycles rename is idle
system.cpu00.rename.BlockCycles                 94151                       # Number of cycles rename is blocking
system.cpu00.rename.serializeStallCycles       223660                       # count of cycles rename stalled for serializing inst
system.cpu00.rename.RunCycles                  147108                       # Number of cycles rename is running
system.cpu00.rename.UnblockCycles              259913                       # Number of cycles rename is unblocking
system.cpu00.rename.RenamedInsts              1108632                       # Number of instructions processed by rename
system.cpu00.rename.ROBFullEvents                2889                       # Number of times rename has blocked due to ROB full
system.cpu00.rename.IQFullEvents                25842                       # Number of times rename has blocked due to IQ full
system.cpu00.rename.LQFullEvents                 2599                       # Number of times rename has blocked due to LQ full
system.cpu00.rename.SQFullEvents               221413                       # Number of times rename has blocked due to SQ full
system.cpu00.rename.RenamedOperands            760238                       # Number of destination operands rename has renamed
system.cpu00.rename.RenameLookups             1372550                       # Number of register rename lookups that rename has made
system.cpu00.rename.int_rename_lookups        1214463                       # Number of integer rename lookups
system.cpu00.rename.fp_rename_lookups          155800                       # Number of floating rename lookups
system.cpu00.rename.CommittedMaps              668998                       # Number of HB maps that are committed
system.cpu00.rename.UndoneMaps                  91240                       # Number of HB maps that are undone due to squashing
system.cpu00.rename.serializingInsts             4086                       # count of serializing insts renamed
system.cpu00.rename.tempSerializingInsts         1712                       # count of temporary serializing insts renamed
system.cpu00.rename.skidInsts                  156046                       # count of insts added to the skid buffer
system.cpu00.memDep0.insertedLoads             180418                       # Number of loads inserted to the mem dependence unit.
system.cpu00.memDep0.insertedStores            135539                       # Number of stores inserted to the mem dependence unit.
system.cpu00.memDep0.conflictingLoads           32235                       # Number of conflicting loads.
system.cpu00.memDep0.conflictingStores          12604                       # Number of conflicting stores.
system.cpu00.iq.iqInstsAdded                   971553                       # Number of instructions added to the IQ (excludes non-spec)
system.cpu00.iq.iqNonSpecInstsAdded              2799                       # Number of non-speculative instructions added to the IQ
system.cpu00.iq.iqInstsIssued                  956105                       # Number of instructions issued
system.cpu00.iq.iqSquashedInstsIssued            1908                       # Number of squashed instructions issued
system.cpu00.iq.iqSquashedInstsExamined        104229                       # Number of squashed instructions iterated over during squash; mainly for profiling
system.cpu00.iq.iqSquashedOperandsExamined        52634                       # Number of squashed operands that are examined and possibly removed from graph
system.cpu00.iq.iqSquashedNonSpecRemoved          420                       # Number of squashed non-spec instructions that were removed
system.cpu00.iq.issued_per_cycle::samples       841414                       # Number of insts issued each cycle
system.cpu00.iq.issued_per_cycle::mean       1.136307                       # Number of insts issued each cycle
system.cpu00.iq.issued_per_cycle::stdev      1.900825                       # Number of insts issued each cycle
system.cpu00.iq.issued_per_cycle::underflows            0      0.00%      0.00% # Number of insts issued each cycle
system.cpu00.iq.issued_per_cycle::0            537565     63.89%     63.89% # Number of insts issued each cycle
system.cpu00.iq.issued_per_cycle::1             76418      9.08%     72.97% # Number of insts issued each cycle
system.cpu00.iq.issued_per_cycle::2             63565      7.55%     80.52% # Number of insts issued each cycle
system.cpu00.iq.issued_per_cycle::3             46693      5.55%     86.07% # Number of insts issued each cycle
system.cpu00.iq.issued_per_cycle::4             43573      5.18%     91.25% # Number of insts issued each cycle
system.cpu00.iq.issued_per_cycle::5             29296      3.48%     94.73% # Number of insts issued each cycle
system.cpu00.iq.issued_per_cycle::6             25760      3.06%     97.80% # Number of insts issued each cycle
system.cpu00.iq.issued_per_cycle::7             11206      1.33%     99.13% # Number of insts issued each cycle
system.cpu00.iq.issued_per_cycle::8              7338      0.87%    100.00% # Number of insts issued each cycle
system.cpu00.iq.issued_per_cycle::overflows            0      0.00%    100.00% # Number of insts issued each cycle
system.cpu00.iq.issued_per_cycle::min_value            0                       # Number of insts issued each cycle
system.cpu00.iq.issued_per_cycle::max_value            8                       # Number of insts issued each cycle
system.cpu00.iq.issued_per_cycle::total        841414                       # Number of insts issued each cycle
system.cpu00.iq.fu_full::No_OpClass                 0      0.00%      0.00% # attempts to use FU when none available
system.cpu00.iq.fu_full::IntAlu                  4567     14.81%     14.81% # attempts to use FU when none available
system.cpu00.iq.fu_full::IntMult                 4097     13.28%     28.09% # attempts to use FU when none available
system.cpu00.iq.fu_full::IntDiv                     0      0.00%     28.09% # attempts to use FU when none available
system.cpu00.iq.fu_full::FloatAdd                 100      0.32%     28.41% # attempts to use FU when none available
system.cpu00.iq.fu_full::FloatCmp                   0      0.00%     28.41% # attempts to use FU when none available
system.cpu00.iq.fu_full::FloatCvt                   0      0.00%     28.41% # attempts to use FU when none available
system.cpu00.iq.fu_full::FloatMult               5940     19.26%     47.67% # attempts to use FU when none available
system.cpu00.iq.fu_full::FloatDiv                   0      0.00%     47.67% # attempts to use FU when none available
system.cpu00.iq.fu_full::FloatSqrt                  0      0.00%     47.67% # attempts to use FU when none available
system.cpu00.iq.fu_full::SimdAdd                    0      0.00%     47.67% # attempts to use FU when none available
system.cpu00.iq.fu_full::SimdAddAcc                 0      0.00%     47.67% # attempts to use FU when none available
system.cpu00.iq.fu_full::SimdAlu                    0      0.00%     47.67% # attempts to use FU when none available
system.cpu00.iq.fu_full::SimdCmp                    0      0.00%     47.67% # attempts to use FU when none available
system.cpu00.iq.fu_full::SimdCvt                    0      0.00%     47.67% # attempts to use FU when none available
system.cpu00.iq.fu_full::SimdMisc                   0      0.00%     47.67% # attempts to use FU when none available
system.cpu00.iq.fu_full::SimdMult                   0      0.00%     47.67% # attempts to use FU when none available
system.cpu00.iq.fu_full::SimdMultAcc                0      0.00%     47.67% # attempts to use FU when none available
system.cpu00.iq.fu_full::SimdShift                  0      0.00%     47.67% # attempts to use FU when none available
system.cpu00.iq.fu_full::SimdShiftAcc               0      0.00%     47.67% # attempts to use FU when none available
system.cpu00.iq.fu_full::SimdSqrt                   0      0.00%     47.67% # attempts to use FU when none available
system.cpu00.iq.fu_full::SimdFloatAdd               0      0.00%     47.67% # attempts to use FU when none available
system.cpu00.iq.fu_full::SimdFloatAlu               0      0.00%     47.67% # attempts to use FU when none available
system.cpu00.iq.fu_full::SimdFloatCmp               0      0.00%     47.67% # attempts to use FU when none available
system.cpu00.iq.fu_full::SimdFloatCvt               0      0.00%     47.67% # attempts to use FU when none available
system.cpu00.iq.fu_full::SimdFloatDiv               0      0.00%     47.67% # attempts to use FU when none available
system.cpu00.iq.fu_full::SimdFloatMisc              0      0.00%     47.67% # attempts to use FU when none available
system.cpu00.iq.fu_full::SimdFloatMult              0      0.00%     47.67% # attempts to use FU when none available
system.cpu00.iq.fu_full::SimdFloatMultAcc            0      0.00%     47.67% # attempts to use FU when none available
system.cpu00.iq.fu_full::SimdFloatSqrt              0      0.00%     47.67% # attempts to use FU when none available
system.cpu00.iq.fu_full::MemRead                 9927     32.18%     79.86% # attempts to use FU when none available
system.cpu00.iq.fu_full::MemWrite                6213     20.14%    100.00% # attempts to use FU when none available
system.cpu00.iq.fu_full::IprAccess                  0      0.00%    100.00% # attempts to use FU when none available
system.cpu00.iq.fu_full::InstPrefetch               0      0.00%    100.00% # attempts to use FU when none available
system.cpu00.iq.FU_type_0::No_OpClass               0      0.00%      0.00% # Type of FU issued
system.cpu00.iq.FU_type_0::IntAlu              552318     57.77%     57.77% # Type of FU issued
system.cpu00.iq.FU_type_0::IntMult              12787      1.34%     59.10% # Type of FU issued
system.cpu00.iq.FU_type_0::IntDiv                   0      0.00%     59.10% # Type of FU issued
system.cpu00.iq.FU_type_0::FloatAdd             35754      3.74%     62.84% # Type of FU issued
system.cpu00.iq.FU_type_0::FloatCmp                 8      0.00%     62.85% # Type of FU issued
system.cpu00.iq.FU_type_0::FloatCvt                 0      0.00%     62.85% # Type of FU issued
system.cpu00.iq.FU_type_0::FloatMult            37103      3.88%     66.73% # Type of FU issued
system.cpu00.iq.FU_type_0::FloatDiv                16      0.00%     66.73% # Type of FU issued
system.cpu00.iq.FU_type_0::FloatSqrt                0      0.00%     66.73% # Type of FU issued
system.cpu00.iq.FU_type_0::SimdAdd                  0      0.00%     66.73% # Type of FU issued
system.cpu00.iq.FU_type_0::SimdAddAcc               0      0.00%     66.73% # Type of FU issued
system.cpu00.iq.FU_type_0::SimdAlu                  0      0.00%     66.73% # Type of FU issued
system.cpu00.iq.FU_type_0::SimdCmp                  0      0.00%     66.73% # Type of FU issued
system.cpu00.iq.FU_type_0::SimdCvt                  0      0.00%     66.73% # Type of FU issued
system.cpu00.iq.FU_type_0::SimdMisc                 0      0.00%     66.73% # Type of FU issued
system.cpu00.iq.FU_type_0::SimdMult                 0      0.00%     66.73% # Type of FU issued
system.cpu00.iq.FU_type_0::SimdMultAcc              0      0.00%     66.73% # Type of FU issued
system.cpu00.iq.FU_type_0::SimdShift                0      0.00%     66.73% # Type of FU issued
system.cpu00.iq.FU_type_0::SimdShiftAcc             0      0.00%     66.73% # Type of FU issued
system.cpu00.iq.FU_type_0::SimdSqrt                 0      0.00%     66.73% # Type of FU issued
system.cpu00.iq.FU_type_0::SimdFloatAdd             0      0.00%     66.73% # Type of FU issued
system.cpu00.iq.FU_type_0::SimdFloatAlu             0      0.00%     66.73% # Type of FU issued
system.cpu00.iq.FU_type_0::SimdFloatCmp             0      0.00%     66.73% # Type of FU issued
system.cpu00.iq.FU_type_0::SimdFloatCvt             0      0.00%     66.73% # Type of FU issued
system.cpu00.iq.FU_type_0::SimdFloatDiv             0      0.00%     66.73% # Type of FU issued
system.cpu00.iq.FU_type_0::SimdFloatMisc            0      0.00%     66.73% # Type of FU issued
system.cpu00.iq.FU_type_0::SimdFloatMult            0      0.00%     66.73% # Type of FU issued
system.cpu00.iq.FU_type_0::SimdFloatMultAcc            0      0.00%     66.73% # Type of FU issued
system.cpu00.iq.FU_type_0::SimdFloatSqrt            0      0.00%     66.73% # Type of FU issued
system.cpu00.iq.FU_type_0::MemRead             187494     19.61%     86.34% # Type of FU issued
system.cpu00.iq.FU_type_0::MemWrite            130625     13.66%    100.00% # Type of FU issued
system.cpu00.iq.FU_type_0::IprAccess                0      0.00%    100.00% # Type of FU issued
system.cpu00.iq.FU_type_0::InstPrefetch             0      0.00%    100.00% # Type of FU issued
system.cpu00.iq.FU_type_0::total               956105                       # Type of FU issued
system.cpu00.iq.rate                         0.909039                       # Inst issue rate
system.cpu00.iq.fu_busy_cnt                     30844                       # FU busy when requested
system.cpu00.iq.fu_busy_rate                 0.032260                       # FU busy rate (busy events/executed inst)
system.cpu00.iq.int_inst_queue_reads          2542682                       # Number of integer instruction queue reads
system.cpu00.iq.int_inst_queue_writes          955644                       # Number of integer instruction queue writes
system.cpu00.iq.int_inst_queue_wakeup_accesses       815282                       # Number of integer instruction queue wakeup accesses
system.cpu00.iq.fp_inst_queue_reads            243694                       # Number of floating instruction queue reads
system.cpu00.iq.fp_inst_queue_writes           123362                       # Number of floating instruction queue writes
system.cpu00.iq.fp_inst_queue_wakeup_accesses       117018                       # Number of floating instruction queue wakeup accesses
system.cpu00.iq.int_alu_accesses               861752                       # Number of integer alu accesses
system.cpu00.iq.fp_alu_accesses                125197                       # Number of floating point alu accesses
system.cpu00.iew.lsq.thread0.forwLoads          21405                       # Number of loads that had data forwarded from stores
system.cpu00.iew.lsq.thread0.invAddrLoads            0                       # Number of loads ignored due to an invalid address
system.cpu00.iew.lsq.thread0.squashedLoads        19397                       # Number of loads squashed
system.cpu00.iew.lsq.thread0.ignoredResponses          113                       # Number of memory responses ignored because the instruction is squashed
system.cpu00.iew.lsq.thread0.memOrderViolation          436                       # Number of memory ordering violations
system.cpu00.iew.lsq.thread0.squashedStores        16007                       # Number of stores squashed
system.cpu00.iew.lsq.thread0.invAddrSwpfs            0                       # Number of software prefetches ignored due to an invalid address
system.cpu00.iew.lsq.thread0.blockedLoads            0                       # Number of blocked loads due to partial load-store forwarding
system.cpu00.iew.lsq.thread0.rescheduledLoads          215                       # Number of loads that were rescheduled
system.cpu00.iew.lsq.thread0.cacheBlocked        12429                       # Number of times an access to memory failed due to the cache being blocked
system.cpu00.iew.iewIdleCycles                      0                       # Number of cycles IEW is idle
system.cpu00.iew.iewSquashCycles                 4743                       # Number of cycles IEW is squashing
system.cpu00.iew.iewBlockCycles                 22990                       # Number of cycles IEW is blocking
system.cpu00.iew.iewUnblockCycles               61273                       # Number of cycles IEW is unblocking
system.cpu00.iew.iewDispatchedInsts           1082192                       # Number of instructions dispatched to IQ
system.cpu00.iew.iewDispSquashedInsts            1503                       # Number of squashed instructions skipped by dispatch
system.cpu00.iew.iewDispLoadInsts              180418                       # Number of dispatched load instructions
system.cpu00.iew.iewDispStoreInsts             135539                       # Number of dispatched store instructions
system.cpu00.iew.iewDispNonSpecInsts             1627                       # Number of dispatched non-speculative instructions
system.cpu00.iew.iewIQFullEvents                  233                       # Number of times the IQ has become full, causing a stall
system.cpu00.iew.iewLSQFullEvents               60961                       # Number of times the LSQ has become full, causing a stall
system.cpu00.iew.memOrderViolationEvents          436                       # Number of memory order violations
system.cpu00.iew.predictedTakenIncorrect         1676                       # Number of branches that were predicted taken incorrectly
system.cpu00.iew.predictedNotTakenIncorrect         3152                       # Number of branches that were predicted not taken incorrectly
system.cpu00.iew.branchMispredicts               4828                       # Number of branch mispredicts detected at execute
system.cpu00.iew.iewExecutedInsts              948524                       # Number of executed instructions
system.cpu00.iew.iewExecLoadInsts              184230                       # Number of load instructions executed
system.cpu00.iew.iewExecSquashedInsts            7581                       # Number of squashed instructions skipped in execute
system.cpu00.iew.exec_swp                           0                       # number of swp insts executed
system.cpu00.iew.exec_nop                      107840                       # number of nop insts executed
system.cpu00.iew.exec_refs                     313382                       # number of memory reference insts executed
system.cpu00.iew.exec_branches                 110642                       # Number of branches executed
system.cpu00.iew.exec_stores                   129152                       # Number of stores executed
system.cpu00.iew.exec_rate                   0.901832                       # Inst execution rate
system.cpu00.iew.wb_sent                       935658                       # cumulative count of insts sent to commit
system.cpu00.iew.wb_count                      932300                       # cumulative count of insts written-back
system.cpu00.iew.wb_producers                  545950                       # num instructions producing a value
system.cpu00.iew.wb_consumers                  778467                       # num instructions consuming a value
system.cpu00.iew.wb_rate                     0.886406                       # insts written-back per cycle
system.cpu00.iew.wb_fanout                   0.701314                       # average fanout of values written-back
system.cpu00.commit.commitSquashedInsts        109031                       # The number of squashed insts skipped by commit
system.cpu00.commit.commitNonSpecStalls          2379                       # The number of times commit has been forced to stall to communicate backwards
system.cpu00.commit.branchMispredicts            4054                       # The number of times a branch was mispredicted
system.cpu00.commit.committed_per_cycle::samples       824249                       # Number of insts commited each cycle
system.cpu00.commit.committed_per_cycle::mean     1.175372                       # Number of insts commited each cycle
system.cpu00.commit.committed_per_cycle::stdev     2.283977                       # Number of insts commited each cycle
system.cpu00.commit.committed_per_cycle::underflows            0      0.00%      0.00% # Number of insts commited each cycle
system.cpu00.commit.committed_per_cycle::0       575638     69.84%     69.84% # Number of insts commited each cycle
system.cpu00.commit.committed_per_cycle::1        52200      6.33%     76.17% # Number of insts commited each cycle
system.cpu00.commit.committed_per_cycle::2        51305      6.22%     82.40% # Number of insts commited each cycle
system.cpu00.commit.committed_per_cycle::3        29914      3.63%     86.02% # Number of insts commited each cycle
system.cpu00.commit.committed_per_cycle::4        34904      4.23%     90.26% # Number of insts commited each cycle
system.cpu00.commit.committed_per_cycle::5         9037      1.10%     91.36% # Number of insts commited each cycle
system.cpu00.commit.committed_per_cycle::6        12880      1.56%     92.92% # Number of insts commited each cycle
system.cpu00.commit.committed_per_cycle::7         4802      0.58%     93.50% # Number of insts commited each cycle
system.cpu00.commit.committed_per_cycle::8        53569      6.50%    100.00% # Number of insts commited each cycle
system.cpu00.commit.committed_per_cycle::overflows            0      0.00%    100.00% # Number of insts commited each cycle
system.cpu00.commit.committed_per_cycle::min_value            0                       # Number of insts commited each cycle
system.cpu00.commit.committed_per_cycle::max_value            8                       # Number of insts commited each cycle
system.cpu00.commit.committed_per_cycle::total       824249                       # Number of insts commited each cycle
system.cpu00.commit.committedInsts             968799                       # Number of instructions committed
system.cpu00.commit.committedOps               968799                       # Number of ops (including micro ops) committed
system.cpu00.commit.swp_count                       0                       # Number of s/w prefetches committed
system.cpu00.commit.refs                       280553                       # Number of memory references committed
system.cpu00.commit.loads                      161021                       # Number of loads committed
system.cpu00.commit.membars                      1041                       # Number of memory barriers committed
system.cpu00.commit.branches                   100175                       # Number of branches committed
system.cpu00.commit.fp_insts                   116058                       # Number of committed floating point instructions.
system.cpu00.commit.int_insts                  792247                       # Number of committed integer instructions.
system.cpu00.commit.function_calls              22225                       # Number of function calls committed.
system.cpu00.commit.op_class_0::No_OpClass        98677     10.19%     10.19% # Class of committed instruction
system.cpu00.commit.op_class_0::IntAlu         503401     51.96%     62.15% # Class of committed instruction
system.cpu00.commit.op_class_0::IntMult         12689      1.31%     63.46% # Class of committed instruction
system.cpu00.commit.op_class_0::IntDiv              0      0.00%     63.46% # Class of committed instruction
system.cpu00.commit.op_class_0::FloatAdd        35480      3.66%     67.12% # Class of committed instruction
system.cpu00.commit.op_class_0::FloatCmp            8      0.00%     67.12% # Class of committed instruction
system.cpu00.commit.op_class_0::FloatCvt            0      0.00%     67.12% # Class of committed instruction
system.cpu00.commit.op_class_0::FloatMult        36935      3.81%     70.93% # Class of committed instruction
system.cpu00.commit.op_class_0::FloatDiv           14      0.00%     70.93% # Class of committed instruction
system.cpu00.commit.op_class_0::FloatSqrt            0      0.00%     70.93% # Class of committed instruction
system.cpu00.commit.op_class_0::SimdAdd             0      0.00%     70.93% # Class of committed instruction
system.cpu00.commit.op_class_0::SimdAddAcc            0      0.00%     70.93% # Class of committed instruction
system.cpu00.commit.op_class_0::SimdAlu             0      0.00%     70.93% # Class of committed instruction
system.cpu00.commit.op_class_0::SimdCmp             0      0.00%     70.93% # Class of committed instruction
system.cpu00.commit.op_class_0::SimdCvt             0      0.00%     70.93% # Class of committed instruction
system.cpu00.commit.op_class_0::SimdMisc            0      0.00%     70.93% # Class of committed instruction
system.cpu00.commit.op_class_0::SimdMult            0      0.00%     70.93% # Class of committed instruction
system.cpu00.commit.op_class_0::SimdMultAcc            0      0.00%     70.93% # Class of committed instruction
system.cpu00.commit.op_class_0::SimdShift            0      0.00%     70.93% # Class of committed instruction
system.cpu00.commit.op_class_0::SimdShiftAcc            0      0.00%     70.93% # Class of committed instruction
system.cpu00.commit.op_class_0::SimdSqrt            0      0.00%     70.93% # Class of committed instruction
system.cpu00.commit.op_class_0::SimdFloatAdd            0      0.00%     70.93% # Class of committed instruction
system.cpu00.commit.op_class_0::SimdFloatAlu            0      0.00%     70.93% # Class of committed instruction
system.cpu00.commit.op_class_0::SimdFloatCmp            0      0.00%     70.93% # Class of committed instruction
system.cpu00.commit.op_class_0::SimdFloatCvt            0      0.00%     70.93% # Class of committed instruction
system.cpu00.commit.op_class_0::SimdFloatDiv            0      0.00%     70.93% # Class of committed instruction
system.cpu00.commit.op_class_0::SimdFloatMisc            0      0.00%     70.93% # Class of committed instruction
system.cpu00.commit.op_class_0::SimdFloatMult            0      0.00%     70.93% # Class of committed instruction
system.cpu00.commit.op_class_0::SimdFloatMultAcc            0      0.00%     70.93% # Class of committed instruction
system.cpu00.commit.op_class_0::SimdFloatSqrt            0      0.00%     70.93% # Class of committed instruction
system.cpu00.commit.op_class_0::MemRead        162062     16.73%     87.66% # Class of committed instruction
system.cpu00.commit.op_class_0::MemWrite       119533     12.34%    100.00% # Class of committed instruction
system.cpu00.commit.op_class_0::IprAccess            0      0.00%    100.00% # Class of committed instruction
system.cpu00.commit.op_class_0::InstPrefetch            0      0.00%    100.00% # Class of committed instruction
system.cpu00.commit.op_class_0::total          968799                       # Class of committed instruction
system.cpu00.commit.bw_lim_events               53569                       # number cycles where commit BW limit reached
system.cpu00.rob.rob_reads                    1844519                       # The number of ROB reads
system.cpu00.rob.rob_writes                   2172934                       # The number of ROB writes
system.cpu00.timesIdled                          1459                       # Number of times that the entire CPU went into an idle state and unscheduled itself
system.cpu00.idleCycles                        210361                       # Total number of cycles that the CPU has spent unscheduled due to idling
system.cpu00.quiesceCycles                      91826                       # Total number of cycles that CPU has spent quiesced or waiting for an interrupt
system.cpu00.committedInsts                    870122                       # Number of Instructions Simulated
system.cpu00.committedOps                      870122                       # Number of Ops (including micro ops) Simulated
system.cpu00.cpi                             1.208767                       # CPI: Cycles Per Instruction
system.cpu00.cpi_total                       1.208767                       # CPI: Total CPI of All Threads
system.cpu00.ipc                             0.827289                       # IPC: Instructions Per Cycle
system.cpu00.ipc_total                       0.827289                       # IPC: Total IPC of All Threads
system.cpu00.int_regfile_reads                1145330                       # number of integer regfile reads
system.cpu00.int_regfile_writes                613596                       # number of integer regfile writes
system.cpu00.fp_regfile_reads                  151864                       # number of floating regfile reads
system.cpu00.fp_regfile_writes                 102947                       # number of floating regfile writes
system.cpu00.misc_regfile_reads                  4808                       # number of misc regfile reads
system.cpu00.misc_regfile_writes                 2256                       # number of misc regfile writes
system.cpu00.dcache.tags.replacements           17295                       # number of replacements
system.cpu00.dcache.tags.tagsinuse          62.925559                       # Cycle average of tags in use
system.cpu00.dcache.tags.total_refs            219349                       # Total number of references to valid blocks.
system.cpu00.dcache.tags.sampled_refs           17359                       # Sample count of references to valid blocks.
system.cpu00.dcache.tags.avg_refs           12.636039                       # Average number of references to valid blocks.
system.cpu00.dcache.tags.warmup_cycle        62818227                       # Cycle when the warmup percentage was hit.
system.cpu00.dcache.tags.occ_blocks::cpu00.data    62.925559                       # Average occupied blocks per requestor
system.cpu00.dcache.tags.occ_percent::cpu00.data     0.983212                       # Average percentage of cache occupancy
system.cpu00.dcache.tags.occ_percent::total     0.983212                       # Average percentage of cache occupancy
system.cpu00.dcache.tags.occ_task_id_blocks::1024           64                       # Occupied blocks per task id
system.cpu00.dcache.tags.age_task_id_blocks_1024::0           55                       # Occupied blocks per task id
system.cpu00.dcache.tags.age_task_id_blocks_1024::1            9                       # Occupied blocks per task id
system.cpu00.dcache.tags.occ_task_id_percent::1024            1                       # Percentage of cache occupancy per task id
system.cpu00.dcache.tags.tag_accesses          560212                       # Number of tag accesses
system.cpu00.dcache.tags.data_accesses         560212                       # Number of data accesses
system.cpu00.dcache.ReadReq_hits::cpu00.data       136547                       # number of ReadReq hits
system.cpu00.dcache.ReadReq_hits::total        136547                       # number of ReadReq hits
system.cpu00.dcache.WriteReq_hits::cpu00.data        80762                       # number of WriteReq hits
system.cpu00.dcache.WriteReq_hits::total        80762                       # number of WriteReq hits
system.cpu00.dcache.LoadLockedReq_hits::cpu00.data          841                       # number of LoadLockedReq hits
system.cpu00.dcache.LoadLockedReq_hits::total          841                       # number of LoadLockedReq hits
system.cpu00.dcache.StoreCondReq_hits::cpu00.data         1113                       # number of StoreCondReq hits
system.cpu00.dcache.StoreCondReq_hits::total         1113                       # number of StoreCondReq hits
system.cpu00.dcache.demand_hits::cpu00.data       217309                       # number of demand (read+write) hits
system.cpu00.dcache.demand_hits::total         217309                       # number of demand (read+write) hits
system.cpu00.dcache.overall_hits::cpu00.data       217309                       # number of overall hits
system.cpu00.dcache.overall_hits::total        217309                       # number of overall hits
system.cpu00.dcache.ReadReq_misses::cpu00.data        14083                       # number of ReadReq misses
system.cpu00.dcache.ReadReq_misses::total        14083                       # number of ReadReq misses
system.cpu00.dcache.WriteReq_misses::cpu00.data        37646                       # number of WriteReq misses
system.cpu00.dcache.WriteReq_misses::total        37646                       # number of WriteReq misses
system.cpu00.dcache.LoadLockedReq_misses::cpu00.data          350                       # number of LoadLockedReq misses
system.cpu00.dcache.LoadLockedReq_misses::total          350                       # number of LoadLockedReq misses
system.cpu00.dcache.StoreCondReq_misses::cpu00.data           11                       # number of StoreCondReq misses
system.cpu00.dcache.StoreCondReq_misses::total           11                       # number of StoreCondReq misses
system.cpu00.dcache.demand_misses::cpu00.data        51729                       # number of demand (read+write) misses
system.cpu00.dcache.demand_misses::total        51729                       # number of demand (read+write) misses
system.cpu00.dcache.overall_misses::cpu00.data        51729                       # number of overall misses
system.cpu00.dcache.overall_misses::total        51729                       # number of overall misses
system.cpu00.dcache.ReadReq_miss_latency::cpu00.data    491481486                       # number of ReadReq miss cycles
system.cpu00.dcache.ReadReq_miss_latency::total    491481486                       # number of ReadReq miss cycles
system.cpu00.dcache.WriteReq_miss_latency::cpu00.data   5522923940                       # number of WriteReq miss cycles
system.cpu00.dcache.WriteReq_miss_latency::total   5522923940                       # number of WriteReq miss cycles
system.cpu00.dcache.LoadLockedReq_miss_latency::cpu00.data      3847554                       # number of LoadLockedReq miss cycles
system.cpu00.dcache.LoadLockedReq_miss_latency::total      3847554                       # number of LoadLockedReq miss cycles
system.cpu00.dcache.StoreCondReq_miss_latency::cpu00.data       333207                       # number of StoreCondReq miss cycles
system.cpu00.dcache.StoreCondReq_miss_latency::total       333207                       # number of StoreCondReq miss cycles
system.cpu00.dcache.demand_miss_latency::cpu00.data   6014405426                       # number of demand (read+write) miss cycles
system.cpu00.dcache.demand_miss_latency::total   6014405426                       # number of demand (read+write) miss cycles
system.cpu00.dcache.overall_miss_latency::cpu00.data   6014405426                       # number of overall miss cycles
system.cpu00.dcache.overall_miss_latency::total   6014405426                       # number of overall miss cycles
system.cpu00.dcache.ReadReq_accesses::cpu00.data       150630                       # number of ReadReq accesses(hits+misses)
system.cpu00.dcache.ReadReq_accesses::total       150630                       # number of ReadReq accesses(hits+misses)
system.cpu00.dcache.WriteReq_accesses::cpu00.data       118408                       # number of WriteReq accesses(hits+misses)
system.cpu00.dcache.WriteReq_accesses::total       118408                       # number of WriteReq accesses(hits+misses)
system.cpu00.dcache.LoadLockedReq_accesses::cpu00.data         1191                       # number of LoadLockedReq accesses(hits+misses)
system.cpu00.dcache.LoadLockedReq_accesses::total         1191                       # number of LoadLockedReq accesses(hits+misses)
system.cpu00.dcache.StoreCondReq_accesses::cpu00.data         1124                       # number of StoreCondReq accesses(hits+misses)
system.cpu00.dcache.StoreCondReq_accesses::total         1124                       # number of StoreCondReq accesses(hits+misses)
system.cpu00.dcache.demand_accesses::cpu00.data       269038                       # number of demand (read+write) accesses
system.cpu00.dcache.demand_accesses::total       269038                       # number of demand (read+write) accesses
system.cpu00.dcache.overall_accesses::cpu00.data       269038                       # number of overall (read+write) accesses
system.cpu00.dcache.overall_accesses::total       269038                       # number of overall (read+write) accesses
system.cpu00.dcache.ReadReq_miss_rate::cpu00.data     0.093494                       # miss rate for ReadReq accesses
system.cpu00.dcache.ReadReq_miss_rate::total     0.093494                       # miss rate for ReadReq accesses
system.cpu00.dcache.WriteReq_miss_rate::cpu00.data     0.317935                       # miss rate for WriteReq accesses
system.cpu00.dcache.WriteReq_miss_rate::total     0.317935                       # miss rate for WriteReq accesses
system.cpu00.dcache.LoadLockedReq_miss_rate::cpu00.data     0.293871                       # miss rate for LoadLockedReq accesses
system.cpu00.dcache.LoadLockedReq_miss_rate::total     0.293871                       # miss rate for LoadLockedReq accesses
system.cpu00.dcache.StoreCondReq_miss_rate::cpu00.data     0.009786                       # miss rate for StoreCondReq accesses
system.cpu00.dcache.StoreCondReq_miss_rate::total     0.009786                       # miss rate for StoreCondReq accesses
system.cpu00.dcache.demand_miss_rate::cpu00.data     0.192274                       # miss rate for demand accesses
system.cpu00.dcache.demand_miss_rate::total     0.192274                       # miss rate for demand accesses
system.cpu00.dcache.overall_miss_rate::cpu00.data     0.192274                       # miss rate for overall accesses
system.cpu00.dcache.overall_miss_rate::total     0.192274                       # miss rate for overall accesses
system.cpu00.dcache.ReadReq_avg_miss_latency::cpu00.data 34898.919690                       # average ReadReq miss latency
system.cpu00.dcache.ReadReq_avg_miss_latency::total 34898.919690                       # average ReadReq miss latency
system.cpu00.dcache.WriteReq_avg_miss_latency::cpu00.data 146706.793285                       # average WriteReq miss latency
system.cpu00.dcache.WriteReq_avg_miss_latency::total 146706.793285                       # average WriteReq miss latency
system.cpu00.dcache.LoadLockedReq_avg_miss_latency::cpu00.data 10993.011429                       # average LoadLockedReq miss latency
system.cpu00.dcache.LoadLockedReq_avg_miss_latency::total 10993.011429                       # average LoadLockedReq miss latency
system.cpu00.dcache.StoreCondReq_avg_miss_latency::cpu00.data 30291.545455                       # average StoreCondReq miss latency
system.cpu00.dcache.StoreCondReq_avg_miss_latency::total 30291.545455                       # average StoreCondReq miss latency
system.cpu00.dcache.demand_avg_miss_latency::cpu00.data 116267.575751                       # average overall miss latency
system.cpu00.dcache.demand_avg_miss_latency::total 116267.575751                       # average overall miss latency
system.cpu00.dcache.overall_avg_miss_latency::cpu00.data 116267.575751                       # average overall miss latency
system.cpu00.dcache.overall_avg_miss_latency::total 116267.575751                       # average overall miss latency
system.cpu00.dcache.blocked_cycles::no_mshrs       165159                       # number of cycles access was blocked
system.cpu00.dcache.blocked_cycles::no_targets            0                       # number of cycles access was blocked
system.cpu00.dcache.blocked::no_mshrs            3557                       # number of cycles access was blocked
system.cpu00.dcache.blocked::no_targets             0                       # number of cycles access was blocked
system.cpu00.dcache.avg_blocked_cycles::no_mshrs    46.432106                       # average number of cycles each access was blocked
system.cpu00.dcache.avg_blocked_cycles::no_targets          nan                       # average number of cycles each access was blocked
system.cpu00.dcache.fast_writes                     0                       # number of fast writes performed
system.cpu00.dcache.cache_copies                    0                       # number of cache copies performed
system.cpu00.dcache.writebacks::writebacks        12746                       # number of writebacks
system.cpu00.dcache.writebacks::total           12746                       # number of writebacks
system.cpu00.dcache.ReadReq_mshr_hits::cpu00.data         4463                       # number of ReadReq MSHR hits
system.cpu00.dcache.ReadReq_mshr_hits::total         4463                       # number of ReadReq MSHR hits
system.cpu00.dcache.WriteReq_mshr_hits::cpu00.data        29893                       # number of WriteReq MSHR hits
system.cpu00.dcache.WriteReq_mshr_hits::total        29893                       # number of WriteReq MSHR hits
system.cpu00.dcache.LoadLockedReq_mshr_hits::cpu00.data          159                       # number of LoadLockedReq MSHR hits
system.cpu00.dcache.LoadLockedReq_mshr_hits::total          159                       # number of LoadLockedReq MSHR hits
system.cpu00.dcache.demand_mshr_hits::cpu00.data        34356                       # number of demand (read+write) MSHR hits
system.cpu00.dcache.demand_mshr_hits::total        34356                       # number of demand (read+write) MSHR hits
system.cpu00.dcache.overall_mshr_hits::cpu00.data        34356                       # number of overall MSHR hits
system.cpu00.dcache.overall_mshr_hits::total        34356                       # number of overall MSHR hits
system.cpu00.dcache.ReadReq_mshr_misses::cpu00.data         9620                       # number of ReadReq MSHR misses
system.cpu00.dcache.ReadReq_mshr_misses::total         9620                       # number of ReadReq MSHR misses
system.cpu00.dcache.WriteReq_mshr_misses::cpu00.data         7753                       # number of WriteReq MSHR misses
system.cpu00.dcache.WriteReq_mshr_misses::total         7753                       # number of WriteReq MSHR misses
system.cpu00.dcache.LoadLockedReq_mshr_misses::cpu00.data          191                       # number of LoadLockedReq MSHR misses
system.cpu00.dcache.LoadLockedReq_mshr_misses::total          191                       # number of LoadLockedReq MSHR misses
system.cpu00.dcache.StoreCondReq_mshr_misses::cpu00.data           10                       # number of StoreCondReq MSHR misses
system.cpu00.dcache.StoreCondReq_mshr_misses::total           10                       # number of StoreCondReq MSHR misses
system.cpu00.dcache.demand_mshr_misses::cpu00.data        17373                       # number of demand (read+write) MSHR misses
system.cpu00.dcache.demand_mshr_misses::total        17373                       # number of demand (read+write) MSHR misses
system.cpu00.dcache.overall_mshr_misses::cpu00.data        17373                       # number of overall MSHR misses
system.cpu00.dcache.overall_mshr_misses::total        17373                       # number of overall MSHR misses
system.cpu00.dcache.ReadReq_mshr_miss_latency::cpu00.data    287301060                       # number of ReadReq MSHR miss cycles
system.cpu00.dcache.ReadReq_mshr_miss_latency::total    287301060                       # number of ReadReq MSHR miss cycles
system.cpu00.dcache.WriteReq_mshr_miss_latency::cpu00.data   1173352900                       # number of WriteReq MSHR miss cycles
system.cpu00.dcache.WriteReq_mshr_miss_latency::total   1173352900                       # number of WriteReq MSHR miss cycles
system.cpu00.dcache.LoadLockedReq_mshr_miss_latency::cpu00.data      1875015                       # number of LoadLockedReq MSHR miss cycles
system.cpu00.dcache.LoadLockedReq_mshr_miss_latency::total      1875015                       # number of LoadLockedReq MSHR miss cycles
system.cpu00.dcache.StoreCondReq_mshr_miss_latency::cpu00.data       321597                       # number of StoreCondReq MSHR miss cycles
system.cpu00.dcache.StoreCondReq_mshr_miss_latency::total       321597                       # number of StoreCondReq MSHR miss cycles
system.cpu00.dcache.demand_mshr_miss_latency::cpu00.data   1460653960                       # number of demand (read+write) MSHR miss cycles
system.cpu00.dcache.demand_mshr_miss_latency::total   1460653960                       # number of demand (read+write) MSHR miss cycles
system.cpu00.dcache.overall_mshr_miss_latency::cpu00.data   1460653960                       # number of overall MSHR miss cycles
system.cpu00.dcache.overall_mshr_miss_latency::total   1460653960                       # number of overall MSHR miss cycles
system.cpu00.dcache.ReadReq_mshr_miss_rate::cpu00.data     0.063865                       # mshr miss rate for ReadReq accesses
system.cpu00.dcache.ReadReq_mshr_miss_rate::total     0.063865                       # mshr miss rate for ReadReq accesses
system.cpu00.dcache.WriteReq_mshr_miss_rate::cpu00.data     0.065477                       # mshr miss rate for WriteReq accesses
system.cpu00.dcache.WriteReq_mshr_miss_rate::total     0.065477                       # mshr miss rate for WriteReq accesses
system.cpu00.dcache.LoadLockedReq_mshr_miss_rate::cpu00.data     0.160369                       # mshr miss rate for LoadLockedReq accesses
system.cpu00.dcache.LoadLockedReq_mshr_miss_rate::total     0.160369                       # mshr miss rate for LoadLockedReq accesses
system.cpu00.dcache.StoreCondReq_mshr_miss_rate::cpu00.data     0.008897                       # mshr miss rate for StoreCondReq accesses
system.cpu00.dcache.StoreCondReq_mshr_miss_rate::total     0.008897                       # mshr miss rate for StoreCondReq accesses
system.cpu00.dcache.demand_mshr_miss_rate::cpu00.data     0.064575                       # mshr miss rate for demand accesses
system.cpu00.dcache.demand_mshr_miss_rate::total     0.064575                       # mshr miss rate for demand accesses
system.cpu00.dcache.overall_mshr_miss_rate::cpu00.data     0.064575                       # mshr miss rate for overall accesses
system.cpu00.dcache.overall_mshr_miss_rate::total     0.064575                       # mshr miss rate for overall accesses
system.cpu00.dcache.ReadReq_avg_mshr_miss_latency::cpu00.data 29864.975052                       # average ReadReq mshr miss latency
system.cpu00.dcache.ReadReq_avg_mshr_miss_latency::total 29864.975052                       # average ReadReq mshr miss latency
system.cpu00.dcache.WriteReq_avg_mshr_miss_latency::cpu00.data 151341.790275                       # average WriteReq mshr miss latency
system.cpu00.dcache.WriteReq_avg_mshr_miss_latency::total 151341.790275                       # average WriteReq mshr miss latency
[...]
system.tol2bus.pkt_count_system.cpu06.dcache.mem_side::system.l2.cpu_side         2053                       # Packet count per connected master and slave (bytes)
system.tol2bus.pkt_count_system.cpu07.icache.mem_side::system.l2.cpu_side         2561                       # Packet count per connected master and slave (bytes)
system.tol2bus.pkt_count_system.cpu07.dcache.mem_side::system.l2.cpu_side         4385                       # Packet count per connected master and slave (bytes)
system.tol2bus.pkt_count_system.cpu08.icache.mem_side::system.l2.cpu_side         1891                       # Packet count per connected master and slave (bytes)
system.tol2bus.pkt_count_system.cpu08.dcache.mem_side::system.l2.cpu_side         2721                       # Packet count per connected master and slave (bytes)
system.tol2bus.pkt_count_system.cpu09.icache.mem_side::system.l2.cpu_side         2695                       # Packet count per connected master and slave (bytes)
system.tol2bus.pkt_count_system.cpu09.dcache.mem_side::system.l2.cpu_side         5121                       # Packet count per connected master and slave (bytes)
system.tol2bus.pkt_count_system.cpu10.icache.mem_side::system.l2.cpu_side         2581                       # Packet count per connected master and slave (bytes)
system.tol2bus.pkt_count_system.cpu10.dcache.mem_side::system.l2.cpu_side         4389                       # Packet count per connected master and slave (bytes)
system.tol2bus.pkt_count_system.cpu11.icache.mem_side::system.l2.cpu_side         2945                       # Packet count per connected master and slave (bytes)
system.tol2bus.pkt_count_system.cpu11.dcache.mem_side::system.l2.cpu_side         5653                       # Packet count per connected master and slave (bytes)
system.tol2bus.pkt_count_system.cpu12.icache.mem_side::system.l2.cpu_side         1036                       # Packet count per connected master and slave (bytes)
system.tol2bus.pkt_count_system.cpu12.dcache.mem_side::system.l2.cpu_side         1671                       # Packet count per connected master and slave (bytes)
system.tol2bus.pkt_count_system.cpu13.icache.mem_side::system.l2.cpu_side         2535                       # Packet count per connected master and slave (bytes)
system.tol2bus.pkt_count_system.cpu13.dcache.mem_side::system.l2.cpu_side         4195                       # Packet count per connected master and slave (bytes)
system.tol2bus.pkt_count_system.cpu14.icache.mem_side::system.l2.cpu_side         1559                       # Packet count per connected master and slave (bytes)
system.tol2bus.pkt_count_system.cpu14.dcache.mem_side::system.l2.cpu_side         2373                       # Packet count per connected master and slave (bytes)
system.tol2bus.pkt_count_system.cpu15.icache.mem_side::system.l2.cpu_side         2496                       # Packet count per connected master and slave (bytes)
system.tol2bus.pkt_count_system.cpu15.dcache.mem_side::system.l2.cpu_side         3919                       # Packet count per connected master and slave (bytes)
system.tol2bus.pkt_count::total                164652                       # Packet count per connected master and slave (bytes)
system.tol2bus.pkt_size_system.cpu00.icache.mem_side::system.l2.cpu_side       977408                       # Cumulative packet size per connected master and slave (bytes)
system.tol2bus.pkt_size_system.cpu00.dcache.mem_side::system.l2.cpu_side      1912064                       # Cumulative packet size per connected master and slave (bytes)
system.tol2bus.pkt_size_system.cpu01.icache.mem_side::system.l2.cpu_side        86336                       # Cumulative packet size per connected master and slave (bytes)
system.tol2bus.pkt_size_system.cpu01.dcache.mem_side::system.l2.cpu_side       134144                       # Cumulative packet size per connected master and slave (bytes)
system.tol2bus.pkt_size_system.cpu02.icache.mem_side::system.l2.cpu_side       108992                       # Cumulative packet size per connected master and slave (bytes)
system.tol2bus.pkt_size_system.cpu02.dcache.mem_side::system.l2.cpu_side       127296                       # Cumulative packet size per connected master and slave (bytes)
system.tol2bus.pkt_size_system.cpu03.icache.mem_side::system.l2.cpu_side       108096                       # Cumulative packet size per connected master and slave (bytes)
system.tol2bus.pkt_size_system.cpu03.dcache.mem_side::system.l2.cpu_side       142208                       # Cumulative packet size per connected master and slave (bytes)
system.tol2bus.pkt_size_system.cpu04.icache.mem_side::system.l2.cpu_side        84288                       # Cumulative packet size per connected master and slave (bytes)
system.tol2bus.pkt_size_system.cpu04.dcache.mem_side::system.l2.cpu_side        80576                       # Cumulative packet size per connected master and slave (bytes)
system.tol2bus.pkt_size_system.cpu05.icache.mem_side::system.l2.cpu_side        35840                       # Cumulative packet size per connected master and slave (bytes)
system.tol2bus.pkt_size_system.cpu05.dcache.mem_side::system.l2.cpu_side        47552                       # Cumulative packet size per connected master and slave (bytes)
system.tol2bus.pkt_size_system.cpu06.icache.mem_side::system.l2.cpu_side        68800                       # Cumulative packet size per connected master and slave (bytes)
system.tol2bus.pkt_size_system.cpu06.dcache.mem_side::system.l2.cpu_side        65536                       # Cumulative packet size per connected master and slave (bytes)
system.tol2bus.pkt_size_system.cpu07.icache.mem_side::system.l2.cpu_side        98944                       # Cumulative packet size per connected master and slave (bytes)
system.tol2bus.pkt_size_system.cpu07.dcache.mem_side::system.l2.cpu_side       111488                       # Cumulative packet size per connected master and slave (bytes)
system.tol2bus.pkt_size_system.cpu08.icache.mem_side::system.l2.cpu_side        70912                       # Cumulative packet size per connected master and slave (bytes)
system.tol2bus.pkt_size_system.cpu08.dcache.mem_side::system.l2.cpu_side        75584                       # Cumulative packet size per connected master and slave (bytes)
system.tol2bus.pkt_size_system.cpu09.icache.mem_side::system.l2.cpu_side       104704                       # Cumulative packet size per connected master and slave (bytes)
system.tol2bus.pkt_size_system.cpu09.dcache.mem_side::system.l2.cpu_side       125056                       # Cumulative packet size per connected master and slave (bytes)
system.tol2bus.pkt_size_system.cpu10.icache.mem_side::system.l2.cpu_side        99840                       # Cumulative packet size per connected master and slave (bytes)
system.tol2bus.pkt_size_system.cpu10.dcache.mem_side::system.l2.cpu_side       112320                       # Cumulative packet size per connected master and slave (bytes)
system.tol2bus.pkt_size_system.cpu11.icache.mem_side::system.l2.cpu_side       115904                       # Cumulative packet size per connected master and slave (bytes)
system.tol2bus.pkt_size_system.cpu11.dcache.mem_side::system.l2.cpu_side       145792                       # Cumulative packet size per connected master and slave (bytes)
system.tol2bus.pkt_size_system.cpu12.icache.mem_side::system.l2.cpu_side        35776                       # Cumulative packet size per connected master and slave (bytes)
system.tol2bus.pkt_size_system.cpu12.dcache.mem_side::system.l2.cpu_side        56576                       # Cumulative packet size per connected master and slave (bytes)
system.tol2bus.pkt_size_system.cpu13.icache.mem_side::system.l2.cpu_side        97856                       # Cumulative packet size per connected master and slave (bytes)
system.tol2bus.pkt_size_system.cpu13.dcache.mem_side::system.l2.cpu_side       122240                       # Cumulative packet size per connected master and slave (bytes)
system.tol2bus.pkt_size_system.cpu14.icache.mem_side::system.l2.cpu_side        56640                       # Cumulative packet size per connected master and slave (bytes)
system.tol2bus.pkt_size_system.cpu14.dcache.mem_side::system.l2.cpu_side        69888                       # Cumulative packet size per connected master and slave (bytes)
system.tol2bus.pkt_size_system.cpu15.icache.mem_side::system.l2.cpu_side        96256                       # Cumulative packet size per connected master and slave (bytes)
system.tol2bus.pkt_size_system.cpu15.dcache.mem_side::system.l2.cpu_side       104960                       # Cumulative packet size per connected master and slave (bytes)
system.tol2bus.pkt_size::total                5679872                       # Cumulative packet size per connected master and slave (bytes)
system.tol2bus.snoops                           10666                       # Total snoops (count)
system.tol2bus.snoop_fanout::samples            64797                       # Request fanout histogram
system.tol2bus.snoop_fanout::mean            2.078275                       # Request fanout histogram
system.tol2bus.snoop_fanout::stdev           3.704672                       # Request fanout histogram
system.tol2bus.snoop_fanout::underflows             0      0.00%      0.00% # Request fanout histogram
system.tol2bus.snoop_fanout::0                  37289     57.55%     57.55% # Request fanout histogram
system.tol2bus.snoop_fanout::1                   9980     15.40%     72.95% # Request fanout histogram
system.tol2bus.snoop_fanout::2                   2637      4.07%     77.02% # Request fanout histogram
system.tol2bus.snoop_fanout::3                   1660      2.56%     79.58% # Request fanout histogram
system.tol2bus.snoop_fanout::4                   1487      2.29%     81.88% # Request fanout histogram
system.tol2bus.snoop_fanout::5                   1407      2.17%     84.05% # Request fanout histogram
system.tol2bus.snoop_fanout::6                   1379      2.13%     86.18% # Request fanout histogram
system.tol2bus.snoop_fanout::7                   1338      2.06%     88.24% # Request fanout histogram
system.tol2bus.snoop_fanout::8                   1276      1.97%     90.21% # Request fanout histogram
system.tol2bus.snoop_fanout::9                   1181      1.82%     92.03% # Request fanout histogram
system.tol2bus.snoop_fanout::10                  1083      1.67%     93.70% # Request fanout histogram
system.tol2bus.snoop_fanout::11                   949      1.46%     95.17% # Request fanout histogram
system.tol2bus.snoop_fanout::12                   905      1.40%     96.56% # Request fanout histogram
system.tol2bus.snoop_fanout::13                   883      1.36%     97.93% # Request fanout histogram
system.tol2bus.snoop_fanout::14                   783      1.21%     99.14% # Request fanout histogram
system.tol2bus.snoop_fanout::15                   558      0.86%    100.00% # Request fanout histogram
system.tol2bus.snoop_fanout::16                     2      0.00%    100.00% # Request fanout histogram
system.tol2bus.snoop_fanout::17                     0      0.00%    100.00% # Request fanout histogram
system.tol2bus.snoop_fanout::18                     0      0.00%    100.00% # Request fanout histogram
system.tol2bus.snoop_fanout::19                     0      0.00%    100.00% # Request fanout histogram
system.tol2bus.snoop_fanout::20                     0      0.00%    100.00% # Request fanout histogram
system.tol2bus.snoop_fanout::21                     0      0.00%    100.00% # Request fanout histogram
system.tol2bus.snoop_fanout::22                     0      0.00%    100.00% # Request fanout histogram
system.tol2bus.snoop_fanout::23                     0      0.00%    100.00% # Request fanout histogram
system.tol2bus.snoop_fanout::24                     0      0.00%    100.00% # Request fanout histogram
system.tol2bus.snoop_fanout::25                     0      0.00%    100.00% # Request fanout histogram
system.tol2bus.snoop_fanout::26                     0      0.00%    100.00% # Request fanout histogram
system.tol2bus.snoop_fanout::27                     0      0.00%    100.00% # Request fanout histogram
system.tol2bus.snoop_fanout::28                     0      0.00%    100.00% # Request fanout histogram
system.tol2bus.snoop_fanout::29                     0      0.00%    100.00% # Request fanout histogram
system.tol2bus.snoop_fanout::30                     0      0.00%    100.00% # Request fanout histogram
system.tol2bus.snoop_fanout::31                     0      0.00%    100.00% # Request fanout histogram
system.tol2bus.snoop_fanout::32                     0      0.00%    100.00% # Request fanout histogram
system.tol2bus.snoop_fanout::overflows              0      0.00%    100.00% # Request fanout histogram
system.tol2bus.snoop_fanout::min_value              0                       # Request fanout histogram
system.tol2bus.snoop_fanout::max_value             16                       # Request fanout histogram
system.tol2bus.snoop_fanout::total              64797                       # Request fanout histogram
system.tol2bus.reqLayer0.occupancy          212647076                       # Layer occupancy (ticks)
system.tol2bus.reqLayer0.utilization             16.0                       # Layer utilization (%)
system.tol2bus.respLayer0.occupancy          27858900                       # Layer occupancy (ticks)
system.tol2bus.respLayer0.utilization             2.1                       # Layer utilization (%)
system.tol2bus.respLayer1.occupancy          61336289                       # Layer occupancy (ticks)
system.tol2bus.respLayer1.utilization             4.6                       # Layer utilization (%)
system.tol2bus.respLayer2.occupancy           3266011                       # Layer occupancy (ticks)
system.tol2bus.respLayer2.utilization             0.2                       # Layer utilization (%)
system.tol2bus.respLayer3.occupancy           6892627                       # Layer occupancy (ticks)
system.tol2bus.respLayer3.utilization             0.5                       # Layer utilization (%)
system.tol2bus.respLayer4.occupancy           3883882                       # Layer occupancy (ticks)
system.tol2bus.respLayer4.utilization             0.3                       # Layer utilization (%)
system.tol2bus.respLayer5.occupancy           7606658                       # Layer occupancy (ticks)
system.tol2bus.respLayer5.utilization             0.6                       # Layer utilization (%)
system.tol2bus.respLayer6.occupancy           3855295                       # Layer occupancy (ticks)
system.tol2bus.respLayer6.utilization             0.3                       # Layer utilization (%)
system.tol2bus.respLayer7.occupancy           7958952                       # Layer occupancy (ticks)
system.tol2bus.respLayer7.utilization             0.6                       # Layer utilization (%)
system.tol2bus.respLayer8.occupancy           3233156                       # Layer occupancy (ticks)
system.tol2bus.respLayer8.utilization             0.2                       # Layer utilization (%)
system.tol2bus.respLayer9.occupancy           3429903                       # Layer occupancy (ticks)
system.tol2bus.respLayer9.utilization             0.3                       # Layer utilization (%)
system.tol2bus.respLayer10.occupancy          1713384                       # Layer occupancy (ticks)
system.tol2bus.respLayer10.utilization            0.1                       # Layer utilization (%)
system.tol2bus.respLayer11.occupancy          2124568                       # Layer occupancy (ticks)
system.tol2bus.respLayer11.utilization            0.2                       # Layer utilization (%)
system.tol2bus.respLayer12.occupancy          2808599                       # Layer occupancy (ticks)
system.tol2bus.respLayer12.utilization            0.2                       # Layer utilization (%)
system.tol2bus.respLayer13.occupancy          2767731                       # Layer occupancy (ticks)
system.tol2bus.respLayer13.utilization            0.2                       # Layer utilization (%)
system.tol2bus.respLayer14.occupancy          3618672                       # Layer occupancy (ticks)
system.tol2bus.respLayer14.utilization            0.3                       # Layer utilization (%)
system.tol2bus.respLayer15.occupancy          6627924                       # Layer occupancy (ticks)
system.tol2bus.respLayer15.utilization            0.5                       # Layer utilization (%)
system.tol2bus.respLayer16.occupancy          2802508                       # Layer occupancy (ticks)
system.tol2bus.respLayer16.utilization            0.2                       # Layer utilization (%)
system.tol2bus.respLayer17.occupancy          3795167                       # Layer occupancy (ticks)
system.tol2bus.respLayer17.utilization            0.3                       # Layer utilization (%)
system.tol2bus.respLayer18.occupancy          3759350                       # Layer occupancy (ticks)
system.tol2bus.respLayer18.utilization            0.3                       # Layer utilization (%)
system.tol2bus.respLayer19.occupancy          7603663                       # Layer occupancy (ticks)
system.tol2bus.respLayer19.utilization            0.6                       # Layer utilization (%)
system.tol2bus.respLayer20.occupancy          3625048                       # Layer occupancy (ticks)
system.tol2bus.respLayer20.utilization            0.3                       # Layer utilization (%)
system.tol2bus.respLayer21.occupancy          6400897                       # Layer occupancy (ticks)
system.tol2bus.respLayer21.utilization            0.5                       # Layer utilization (%)
system.tol2bus.respLayer22.occupancy          4007591                       # Layer occupancy (ticks)
system.tol2bus.respLayer22.utilization            0.3                       # Layer utilization (%)
system.tol2bus.respLayer23.occupancy          8266876                       # Layer occupancy (ticks)
system.tol2bus.respLayer23.utilization            0.6                       # Layer utilization (%)
system.tol2bus.respLayer24.occupancy          1691844                       # Layer occupancy (ticks)
system.tol2bus.respLayer24.utilization            0.1                       # Layer utilization (%)
system.tol2bus.respLayer25.occupancy          2222090                       # Layer occupancy (ticks)
system.tol2bus.respLayer25.utilization            0.2                       # Layer utilization (%)
system.tol2bus.respLayer26.occupancy          3618288                       # Layer occupancy (ticks)
system.tol2bus.respLayer26.utilization            0.3                       # Layer utilization (%)
system.tol2bus.respLayer27.occupancy          5881628                       # Layer occupancy (ticks)
system.tol2bus.respLayer27.utilization            0.4                       # Layer utilization (%)
system.tol2bus.respLayer28.occupancy          2424814                       # Layer occupancy (ticks)
system.tol2bus.respLayer28.utilization            0.2                       # Layer utilization (%)
system.tol2bus.respLayer29.occupancy          3025425                       # Layer occupancy (ticks)
system.tol2bus.respLayer29.utilization            0.2                       # Layer utilization (%)
system.tol2bus.respLayer30.occupancy          3530026                       # Layer occupancy (ticks)
system.tol2bus.respLayer30.utilization            0.3                       # Layer utilization (%)
system.tol2bus.respLayer31.occupancy          5626040                       # Layer occupancy (ticks)
system.tol2bus.respLayer31.utilization            0.4                       # Layer utilization (%)

---------- End Simulation Statistics   ----------
