
---------- Begin Simulation Statistics ----------
sim_seconds                                  0.023952                       # Number of seconds simulated
sim_ticks                                 23951551905                       # Number of ticks simulated
final_tick                                23951551905                       # Number of ticks from beginning of simulation (restored from checkpoints and never reset)
sim_freq                                 1000000000000                       # Frequency of simulated ticks
host_inst_rate                                 123966                       # Simulator instruction rate (inst/s)
host_op_rate                                   123966                       # Simulator op (including micro ops) rate (op/s)
host_tick_rate                               25260659                       # Simulator tick rate (ticks/s)
host_mem_usage                                 696936                       # Number of bytes of host memory used
host_seconds                                   948.18                       # Real time elapsed on the host
sim_insts                                   117541805                       # Number of instructions simulated
sim_ops                                     117541805                       # Number of ops (including micro ops) simulated
system.voltage_domain.voltage                       1                       # Voltage in Volts
system.clk_domain.clock                          1000                       # Clock period in ticks
system.mem_ctrls.bytes_read::cpu00.inst        180224                       # Number of bytes read from this memory
system.mem_ctrls.bytes_read::cpu00.data       3356416                       # Number of bytes read from this memory
system.mem_ctrls.bytes_read::cpu01.inst         56768                       # Number of bytes read from this memory
system.mem_ctrls.bytes_read::cpu01.data       2785920                       # Number of bytes read from this memory
system.mem_ctrls.bytes_read::cpu02.inst         11200                       # Number of bytes read from this memory
system.mem_ctrls.bytes_read::cpu02.data       2619136                       # Number of bytes read from this memory
system.mem_ctrls.bytes_read::cpu03.inst         18112                       # Number of bytes read from this memory
system.mem_ctrls.bytes_read::cpu03.data       2741376                       # Number of bytes read from this memory
system.mem_ctrls.bytes_read::cpu04.inst         27584                       # Number of bytes read from this memory
system.mem_ctrls.bytes_read::cpu04.data       2889024                       # Number of bytes read from this memory
system.mem_ctrls.bytes_read::cpu05.inst         18048                       # Number of bytes read from this memory
system.mem_ctrls.bytes_read::cpu05.data       2831104                       # Number of bytes read from this memory
system.mem_ctrls.bytes_read::cpu06.inst         21824                       # Number of bytes read from this memory
system.mem_ctrls.bytes_read::cpu06.data       2680512                       # Number of bytes read from this memory
system.mem_ctrls.bytes_read::cpu07.inst         16960                       # Number of bytes read from this memory
system.mem_ctrls.bytes_read::cpu07.data       2737024                       # Number of bytes read from this memory
system.mem_ctrls.bytes_read::cpu08.inst         25536                       # Number of bytes read from this memory
system.mem_ctrls.bytes_read::cpu08.data       2956096                       # Number of bytes read from this memory
system.mem_ctrls.bytes_read::cpu09.inst         17536                       # Number of bytes read from this memory
system.mem_ctrls.bytes_read::cpu09.data       2903808                       # Number of bytes read from this memory
system.mem_ctrls.bytes_read::cpu10.inst         11072                       # Number of bytes read from this memory
system.mem_ctrls.bytes_read::cpu10.data       2842496                       # Number of bytes read from this memory
system.mem_ctrls.bytes_read::cpu11.inst         14848                       # Number of bytes read from this memory
system.mem_ctrls.bytes_read::cpu11.data       2873216                       # Number of bytes read from this memory
system.mem_ctrls.bytes_read::cpu12.inst         12160                       # Number of bytes read from this memory
system.mem_ctrls.bytes_read::cpu12.data       3039104                       # Number of bytes read from this memory
system.mem_ctrls.bytes_read::cpu13.inst         40320                       # Number of bytes read from this memory
system.mem_ctrls.bytes_read::cpu13.data       2969024                       # Number of bytes read from this memory
system.mem_ctrls.bytes_read::cpu14.inst         15744                       # Number of bytes read from this memory
system.mem_ctrls.bytes_read::cpu14.data       2854464                       # Number of bytes read from this memory
system.mem_ctrls.bytes_read::cpu15.inst         36224                       # Number of bytes read from this memory
system.mem_ctrls.bytes_read::cpu15.data       2869440                       # Number of bytes read from this memory
system.mem_ctrls.bytes_read::total           46472320                       # Number of bytes read from this memory
system.mem_ctrls.bytes_inst_read::cpu00.inst       180224                       # Number of instructions bytes read from this memory
system.mem_ctrls.bytes_inst_read::cpu01.inst        56768                       # Number of instructions bytes read from this memory
system.mem_ctrls.bytes_inst_read::cpu02.inst        11200                       # Number of instructions bytes read from this memory
system.mem_ctrls.bytes_inst_read::cpu03.inst        18112                       # Number of instructions bytes read from this memory
system.mem_ctrls.bytes_inst_read::cpu04.inst        27584                       # Number of instructions bytes read from this memory
system.mem_ctrls.bytes_inst_read::cpu05.inst        18048                       # Number of instructions bytes read from this memory
system.mem_ctrls.bytes_inst_read::cpu06.inst        21824                       # Number of instructions bytes read from this memory
system.mem_ctrls.bytes_inst_read::cpu07.inst        16960                       # Number of instructions bytes read from this memory
system.mem_ctrls.bytes_inst_read::cpu08.inst        25536                       # Number of instructions bytes read from this memory
system.mem_ctrls.bytes_inst_read::cpu09.inst        17536                       # Number of instructions bytes read from this memory
system.mem_ctrls.bytes_inst_read::cpu10.inst        11072                       # Number of instructions bytes read from this memory
system.mem_ctrls.bytes_inst_read::cpu11.inst        14848                       # Number of instructions bytes read from this memory
system.mem_ctrls.bytes_inst_read::cpu12.inst        12160                       # Number of instructions bytes read from this memory
system.mem_ctrls.bytes_inst_read::cpu13.inst        40320                       # Number of instructions bytes read from this memory
system.mem_ctrls.bytes_inst_read::cpu14.inst        15744                       # Number of instructions bytes read from this memory
system.mem_ctrls.bytes_inst_read::cpu15.inst        36224                       # Number of instructions bytes read from this memory
system.mem_ctrls.bytes_inst_read::total        524160                       # Number of instructions bytes read from this memory
system.mem_ctrls.bytes_written::writebacks     32597568                       # Number of bytes written to this memory
system.mem_ctrls.bytes_written::total        32597568                       # Number of bytes written to this memory
system.mem_ctrls.num_reads::cpu00.inst           2816                       # Number of read requests responded to by this memory
system.mem_ctrls.num_reads::cpu00.data          52444                       # Number of read requests responded to by this memory
system.mem_ctrls.num_reads::cpu01.inst            887                       # Number of read requests responded to by this memory
system.mem_ctrls.num_reads::cpu01.data          43530                       # Number of read requests responded to by this memory
system.mem_ctrls.num_reads::cpu02.inst            175                       # Number of read requests responded to by this memory
system.mem_ctrls.num_reads::cpu02.data          40924                       # Number of read requests responded to by this memory
system.mem_ctrls.num_reads::cpu03.inst            283                       # Number of read requests responded to by this memory
system.mem_ctrls.num_reads::cpu03.data          42834                       # Number of read requests responded to by this memory
system.mem_ctrls.num_reads::cpu04.inst            431                       # Number of read requests responded to by this memory
system.mem_ctrls.num_reads::cpu04.data          45141                       # Number of read requests responded to by this memory
system.mem_ctrls.num_reads::cpu05.inst            282                       # Number of read requests responded to by this memory
system.mem_ctrls.num_reads::cpu05.data          44236                       # Number of read requests responded to by this memory
system.mem_ctrls.num_reads::cpu06.inst            341                       # Number of read requests responded to by this memory
system.mem_ctrls.num_reads::cpu06.data          41883                       # Number of read requests responded to by this memory
system.mem_ctrls.num_reads::cpu07.inst            265                       # Number of read requests responded to by this memory
system.mem_ctrls.num_reads::cpu07.data          42766                       # Number of read requests responded to by this memory
system.mem_ctrls.num_reads::cpu08.inst            399                       # Number of read requests responded to by this memory
system.mem_ctrls.num_reads::cpu08.data          46189                       # Number of read requests responded to by this memory
system.mem_ctrls.num_reads::cpu09.inst            274                       # Number of read requests responded to by this memory
system.mem_ctrls.num_reads::cpu09.data          45372                       # Number of read requests responded to by this memory
system.mem_ctrls.num_reads::cpu10.inst            173                       # Number of read requests responded to by this memory
system.mem_ctrls.num_reads::cpu10.data          44414                       # Number of read requests responded to by this memory
system.mem_ctrls.num_reads::cpu11.inst            232                       # Number of read requests responded to by this memory
system.mem_ctrls.num_reads::cpu11.data          44894                       # Number of read requests responded to by this memory
system.mem_ctrls.num_reads::cpu12.inst            190                       # Number of read requests responded to by this memory
system.mem_ctrls.num_reads::cpu12.data          47486                       # Number of read requests responded to by this memory
system.mem_ctrls.num_reads::cpu13.inst            630                       # Number of read requests responded to by this memory
system.mem_ctrls.num_reads::cpu13.data          46391                       # Number of read requests responded to by this memory
system.mem_ctrls.num_reads::cpu14.inst            246                       # Number of read requests responded to by this memory
system.mem_ctrls.num_reads::cpu14.data          44601                       # Number of read requests responded to by this memory
system.mem_ctrls.num_reads::cpu15.inst            566                       # Number of read requests responded to by this memory
system.mem_ctrls.num_reads::cpu15.data          44835                       # Number of read requests responded to by this memory
system.mem_ctrls.num_reads::total              726130                       # Number of read requests responded to by this memory
system.mem_ctrls.num_writes::writebacks        509337                       # Number of write requests responded to by this memory
system.mem_ctrls.num_writes::total             509337                       # Number of write requests responded to by this memory
system.mem_ctrls.bw_read::cpu00.inst          7524523                       # Total read bandwidth from this memory (bytes/s)
system.mem_ctrls.bw_read::cpu00.data        140133550                       # Total read bandwidth from this memory (bytes/s)
system.mem_ctrls.bw_read::cpu01.inst          2370118                       # Total read bandwidth from this memory (bytes/s)
system.mem_ctrls.bw_read::cpu01.data        116314801                       # Total read bandwidth from this memory (bytes/s)
system.mem_ctrls.bw_read::cpu02.inst           467611                       # Total read bandwidth from this memory (bytes/s)
system.mem_ctrls.bw_read::cpu02.data        109351411                       # Total read bandwidth from this memory (bytes/s)
system.mem_ctrls.bw_read::cpu03.inst           756193                       # Total read bandwidth from this memory (bytes/s)
system.mem_ctrls.bw_read::cpu03.data        114455047                       # Total read bandwidth from this memory (bytes/s)
system.mem_ctrls.bw_read::cpu04.inst          1151658                       # Total read bandwidth from this memory (bytes/s)
system.mem_ctrls.bw_read::cpu04.data        120619491                       # Total read bandwidth from this memory (bytes/s)
system.mem_ctrls.bw_read::cpu05.inst           753521                       # Total read bandwidth from this memory (bytes/s)
system.mem_ctrls.bw_read::cpu05.data        118201276                       # Total read bandwidth from this memory (bytes/s)
system.mem_ctrls.bw_read::cpu06.inst           911173                       # Total read bandwidth from this memory (bytes/s)
system.mem_ctrls.bw_read::cpu06.data        111913917                       # Total read bandwidth from this memory (bytes/s)
system.mem_ctrls.bw_read::cpu07.inst           708096                       # Total read bandwidth from this memory (bytes/s)
system.mem_ctrls.bw_read::cpu07.data        114273347                       # Total read bandwidth from this memory (bytes/s)
system.mem_ctrls.bw_read::cpu08.inst          1066152                       # Total read bandwidth from this memory (bytes/s)
system.mem_ctrls.bw_read::cpu08.data        123419811                       # Total read bandwidth from this memory (bytes/s)
system.mem_ctrls.bw_read::cpu09.inst           732145                       # Total read bandwidth from this memory (bytes/s)
system.mem_ctrls.bw_read::cpu09.data        121236737                       # Total read bandwidth from this memory (bytes/s)
system.mem_ctrls.bw_read::cpu10.inst           462266                       # Total read bandwidth from this memory (bytes/s)
system.mem_ctrls.bw_read::cpu10.data        118676903                       # Total read bandwidth from this memory (bytes/s)
system.mem_ctrls.bw_read::cpu11.inst           619918                       # Total read bandwidth from this memory (bytes/s)
system.mem_ctrls.bw_read::cpu11.data        119959492                       # Total read bandwidth from this memory (bytes/s)
system.mem_ctrls.bw_read::cpu12.inst           507692                       # Total read bandwidth from this memory (bytes/s)
system.mem_ctrls.bw_read::cpu12.data        126885473                       # Total read bandwidth from this memory (bytes/s)
system.mem_ctrls.bw_read::cpu13.inst          1683398                       # Total read bandwidth from this memory (bytes/s)
system.mem_ctrls.bw_read::cpu13.data        123959567                       # Total read bandwidth from this memory (bytes/s)
system.mem_ctrls.bw_read::cpu14.inst           657327                       # Total read bandwidth from this memory (bytes/s)
system.mem_ctrls.bw_read::cpu14.data        119176578                       # Total read bandwidth from this memory (bytes/s)
system.mem_ctrls.bw_read::cpu15.inst          1512386                       # Total read bandwidth from this memory (bytes/s)
system.mem_ctrls.bw_read::cpu15.data        119801840                       # Total read bandwidth from this memory (bytes/s)
system.mem_ctrls.bw_read::total            1940263419                       # Total read bandwidth from this memory (bytes/s)
system.mem_ctrls.bw_inst_read::cpu00.inst      7524523                       # Instruction read bandwidth from this memory (bytes/s)
system.mem_ctrls.bw_inst_read::cpu01.inst      2370118                       # Instruction read bandwidth from this memory (bytes/s)
system.mem_ctrls.bw_inst_read::cpu02.inst       467611                       # Instruction read bandwidth from this memory (bytes/s)
system.mem_ctrls.bw_inst_read::cpu03.inst       756193                       # Instruction read bandwidth from this memory (bytes/s)
system.mem_ctrls.bw_inst_read::cpu04.inst      1151658                       # Instruction read bandwidth from this memory (bytes/s)
system.mem_ctrls.bw_inst_read::cpu05.inst       753521                       # Instruction read bandwidth from this memory (bytes/s)
system.mem_ctrls.bw_inst_read::cpu06.inst       911173                       # Instruction read bandwidth from this memory (bytes/s)
system.mem_ctrls.bw_inst_read::cpu07.inst       708096                       # Instruction read bandwidth from this memory (bytes/s)
system.mem_ctrls.bw_inst_read::cpu08.inst      1066152                       # Instruction read bandwidth from this memory (bytes/s)
system.mem_ctrls.bw_inst_read::cpu09.inst       732145                       # Instruction read bandwidth from this memory (bytes/s)
system.mem_ctrls.bw_inst_read::cpu10.inst       462266                       # Instruction read bandwidth from this memory (bytes/s)
system.mem_ctrls.bw_inst_read::cpu11.inst       619918                       # Instruction read bandwidth from this memory (bytes/s)
system.mem_ctrls.bw_inst_read::cpu12.inst       507692                       # Instruction read bandwidth from this memory (bytes/s)
system.mem_ctrls.bw_inst_read::cpu13.inst      1683398                       # Instruction read bandwidth from this memory (bytes/s)
system.mem_ctrls.bw_inst_read::cpu14.inst       657327                       # Instruction read bandwidth from this memory (bytes/s)
system.mem_ctrls.bw_inst_read::cpu15.inst      1512386                       # Instruction read bandwidth from this memory (bytes/s)
system.mem_ctrls.bw_inst_read::total         21884177                       # Instruction read bandwidth from this memory (bytes/s)
system.mem_ctrls.bw_write::writebacks      1360979369                       # Write bandwidth from this memory (bytes/s)
system.mem_ctrls.bw_write::total           1360979369                       # Write bandwidth from this memory (bytes/s)
system.mem_ctrls.bw_total::writebacks      1360979369                       # Total bandwidth to/from this memory (bytes/s)
system.mem_ctrls.bw_total::cpu00.inst         7524523                       # Total bandwidth to/from this memory (bytes/s)
system.mem_ctrls.bw_total::cpu00.data       140133550                       # Total bandwidth to/from this memory (bytes/s)
system.mem_ctrls.bw_total::cpu01.inst         2370118                       # Total bandwidth to/from this memory (bytes/s)
system.mem_ctrls.bw_total::cpu01.data       116314801                       # Total bandwidth to/from this memory (bytes/s)
system.mem_ctrls.bw_total::cpu02.inst          467611                       # Total bandwidth to/from this memory (bytes/s)
system.mem_ctrls.bw_total::cpu02.data       109351411                       # Total bandwidth to/from this memory (bytes/s)
system.mem_ctrls.bw_total::cpu03.inst          756193                       # Total bandwidth to/from this memory (bytes/s)
system.mem_ctrls.bw_total::cpu03.data       114455047                       # Total bandwidth to/from this memory (bytes/s)
system.mem_ctrls.bw_total::cpu04.inst         1151658                       # Total bandwidth to/from this memory (bytes/s)
system.mem_ctrls.bw_total::cpu04.data       120619491                       # Total bandwidth to/from this memory (bytes/s)
system.mem_ctrls.bw_total::cpu05.inst          753521                       # Total bandwidth to/from this memory (bytes/s)
system.mem_ctrls.bw_total::cpu05.data       118201276                       # Total bandwidth to/from this memory (bytes/s)
system.mem_ctrls.bw_total::cpu06.inst          911173                       # Total bandwidth to/from this memory (bytes/s)
system.mem_ctrls.bw_total::cpu06.data       111913917                       # Total bandwidth to/from this memory (bytes/s)
system.mem_ctrls.bw_total::cpu07.inst          708096                       # Total bandwidth to/from this memory (bytes/s)
system.mem_ctrls.bw_total::cpu07.data       114273347                       # Total bandwidth to/from this memory (bytes/s)
system.mem_ctrls.bw_total::cpu08.inst         1066152                       # Total bandwidth to/from this memory (bytes/s)
system.mem_ctrls.bw_total::cpu08.data       123419811                       # Total bandwidth to/from this memory (bytes/s)
system.mem_ctrls.bw_total::cpu09.inst          732145                       # Total bandwidth to/from this memory (bytes/s)
system.mem_ctrls.bw_total::cpu09.data       121236737                       # Total bandwidth to/from this memory (bytes/s)
system.mem_ctrls.bw_total::cpu10.inst          462266                       # Total bandwidth to/from this memory (bytes/s)
system.mem_ctrls.bw_total::cpu10.data       118676903                       # Total bandwidth to/from this memory (bytes/s)
system.mem_ctrls.bw_total::cpu11.inst          619918                       # Total bandwidth to/from this memory (bytes/s)
system.mem_ctrls.bw_total::cpu11.data       119959492                       # Total bandwidth to/from this memory (bytes/s)
system.mem_ctrls.bw_total::cpu12.inst          507692                       # Total bandwidth to/from this memory (bytes/s)
system.mem_ctrls.bw_total::cpu12.data       126885473                       # Total bandwidth to/from this memory (bytes/s)
system.mem_ctrls.bw_total::cpu13.inst         1683398                       # Total bandwidth to/from this memory (bytes/s)
system.mem_ctrls.bw_total::cpu13.data       123959567                       # Total bandwidth to/from this memory (bytes/s)
system.mem_ctrls.bw_total::cpu14.inst          657327                       # Total bandwidth to/from this memory (bytes/s)
system.mem_ctrls.bw_total::cpu14.data       119176578                       # Total bandwidth to/from this memory (bytes/s)
system.mem_ctrls.bw_total::cpu15.inst         1512386                       # Total bandwidth to/from this memory (bytes/s)
system.mem_ctrls.bw_total::cpu15.data       119801840                       # Total bandwidth to/from this memory (bytes/s)
system.mem_ctrls.bw_total::total           3301242789                       # Total bandwidth to/from this memory (bytes/s)
system.cpu00.branchPred.lookups                583460                       # Number of BP lookups
system.cpu00.branchPred.condPredicted          468054                       # Number of conditional branches predicted
system.cpu00.branchPred.condIncorrect           11282                       # Number of conditional branches incorrect
system.cpu00.branchPred.BTBLookups             389344                       # Number of BTB lookups
system.cpu00.branchPred.BTBHits                272848                       # Number of BTB hits
system.cpu00.branchPred.BTBCorrect                  0                       # Number of correct BTB predictions (this stat may not work properly.
system.cpu00.branchPred.BTBHitPct           70.078902                       # BTB Hit Percentage
system.cpu00.branchPred.usedRAS                 45296                       # Number of times the RAS was used to get a target.
system.cpu00.branchPred.RASInCorrect               86                       # Number of incorrect RAS predictions.
system.cpu00.branchPred.indirectLookups          8815                       # Number of indirect predictor lookups.
system.cpu00.branchPred.indirectHits             7982                       # Number of indirect target hits.
system.cpu00.branchPred.indirectMisses            833                       # Number of indirect misses.
system.cpu00.branchPredindirectMispredicted          256                       # Number of mispredicted indirect branches.
system.cpu_voltage_domain.voltage                   1                       # Voltage in Volts
system.cpu_clk_domain.clock                      1161                       # Clock period in ticks
system.cpu00.dtb.fetch_hits                         0                       # ITB hits
system.cpu00.dtb.fetch_misses                       0                       # ITB misses
system.cpu00.dtb.fetch_acv                          0                       # ITB acv
system.cpu00.dtb.fetch_accesses                     0                       # ITB accesses
system.cpu00.dtb.read_hits                    5826659                       # DTB read hits
system.cpu00.dtb.read_misses                     8562                       # DTB read misses
system.cpu00.dtb.read_acv                           5                       # DTB read access violations
system.cpu00.dtb.read_accesses                5835221                       # DTB read accesses
system.cpu00.dtb.write_hits                    649729                       # DTB write hits
system.cpu00.dtb.write_misses                   10039                       # DTB write misses
system.cpu00.dtb.write_acv                          0                       # DTB write access violations
system.cpu00.dtb.write_accesses                659768                       # DTB write accesses
system.cpu00.dtb.data_hits                    6476388                       # DTB hits
system.cpu00.dtb.data_misses                    18601                       # DTB misses
system.cpu00.dtb.data_acv                           5                       # DTB access violations
system.cpu00.dtb.data_accesses                6494989                       # DTB accesses
system.cpu00.itb.fetch_hits                    840274                       # ITB hits
system.cpu00.itb.fetch_misses                     245                       # ITB misses
system.cpu00.itb.fetch_acv                          0                       # ITB acv
system.cpu00.itb.fetch_accesses                840519                       # ITB accesses
system.cpu00.itb.read_hits                          0                       # DTB read hits
system.cpu00.itb.read_misses                        0                       # DTB read misses
system.cpu00.itb.read_acv                           0                       # DTB read access violations
system.cpu00.itb.read_accesses                      0                       # DTB read accesses
system.cpu00.itb.write_hits                         0                       # DTB write hits
system.cpu00.itb.write_misses                       0                       # DTB write misses
system.cpu00.itb.write_acv                          0                       # DTB write access violations
system.cpu00.itb.write_accesses                     0                       # DTB write accesses
system.cpu00.itb.data_hits                          0                       # DTB hits
system.cpu00.itb.data_misses                        0                       # DTB misses
system.cpu00.itb.data_acv                           0                       # DTB access violations
system.cpu00.itb.data_accesses                      0                       # DTB accesses
system.cpu00.workload.num_syscalls              66236                       # Number of system calls
system.cpu00.numCycles                       19539348                       # number of cpu cycles simulated
system.cpu00.numWorkItemsStarted                    0                       # number of work items this cpu started
system.cpu00.numWorkItemsCompleted                  0                       # number of work items this cpu completed
system.cpu00.fetch.icacheStallCycles           218488                       # Number of cycles fetch is stalled on an Icache miss
system.cpu00.fetch.Insts                      9332531                       # Number of instructions fetch has processed
system.cpu00.fetch.Branches                    583460                       # Number of branches that fetch encountered
system.cpu00.fetch.predictedBranches           326126                       # Number of branches that fetch has predicted taken
system.cpu00.fetch.Cycles                    18852415                       # Number of cycles fetch has run and was not squashing or blocked
system.cpu00.fetch.SquashCycles                 29744                       # Number of cycles fetch has spent squashing
system.cpu00.fetch.MiscStallCycles               1092                       # Number of cycles fetch has spent waiting on interrupts, or bad addresses, or out of MSHRs
system.cpu00.fetch.PendingTrapStallCycles        10256                       # Number of stall cycles due to pending traps
system.cpu00.fetch.IcacheWaitRetryStallCycles         1804                       # Number of stall cycles due to full MSHR
system.cpu00.fetch.CacheLines                  840274                       # Number of cache lines fetched
system.cpu00.fetch.IcacheSquashes                3842                       # Number of outstanding Icache misses that were squashed
system.cpu00.fetch.rateDist::samples         19098927                       # Number of instructions fetched each cycle (Total)
system.cpu00.fetch.rateDist::mean            0.488642                       # Number of instructions fetched each cycle (Total)
system.cpu00.fetch.rateDist::stdev           1.768667                       # Number of instructions fetched each cycle (Total)
system.cpu00.fetch.rateDist::underflows             0      0.00%      0.00% # Number of instructions fetched each cycle (Total)
system.cpu00.fetch.rateDist::0               17493941     91.60%     91.60% # Number of instructions fetched each cycle (Total)
system.cpu00.fetch.rateDist::1                 121037      0.63%     92.23% # Number of instructions fetched each cycle (Total)
system.cpu00.fetch.rateDist::2                 131319      0.69%     92.92% # Number of instructions fetched each cycle (Total)
system.cpu00.fetch.rateDist::3                 120887      0.63%     93.55% # Number of instructions fetched each cycle (Total)
system.cpu00.fetch.rateDist::4                 157075      0.82%     94.37% # Number of instructions fetched each cycle (Total)
system.cpu00.fetch.rateDist::5                 109154      0.57%     94.94% # Number of instructions fetched each cycle (Total)
system.cpu00.fetch.rateDist::6                 107882      0.56%     95.51% # Number of instructions fetched each cycle (Total)
system.cpu00.fetch.rateDist::7                  96223      0.50%     96.01% # Number of instructions fetched each cycle (Total)
system.cpu00.fetch.rateDist::8                 761409      3.99%    100.00% # Number of instructions fetched each cycle (Total)
system.cpu00.fetch.rateDist::overflows              0      0.00%    100.00% # Number of instructions fetched each cycle (Total)
system.cpu00.fetch.rateDist::min_value              0                       # Number of instructions fetched each cycle (Total)
system.cpu00.fetch.rateDist::max_value              8                       # Number of instructions fetched each cycle (Total)
system.cpu00.fetch.rateDist::total           19098927                       # Number of instructions fetched each cycle (Total)
system.cpu00.fetch.branchRate                0.029861                       # Number of branch fetches per cycle
system.cpu00.fetch.rate                      0.477628                       # Number of inst fetches per cycle
system.cpu00.decode.IdleCycles                 388642                       # Number of cycles decode is idle
system.cpu00.decode.BlockedCycles            17528461                       # Number of cycles decode is blocked
system.cpu00.decode.RunCycles                  621742                       # Number of cycles decode is running
system.cpu00.decode.UnblockCycles              547737                       # Number of cycles decode is unblocking
system.cpu00.decode.SquashCycles                12345                       # Number of cycles decode is squashing
system.cpu00.decode.BranchResolved              54860                       # Number of times decode resolved a branch
system.cpu00.decode.BranchMispred                2576                       # Number of times decode detected a branch misprediction
system.cpu00.decode.DecodedInsts              9025415                       # Number of instructions handled by decode
system.cpu00.decode.SquashedInsts               10237                       # Number of squashed instructions handled by decode
system.cpu00.rename.SquashCycles                12345                       # Number of cycles rename is squashing
system.cpu00.rename.IdleCycles                 577088                       # Number of cycles rename is idle
system.cpu00.rename.BlockCycles              11553016                       # Number of cycles rename is blocking
system.cpu00.rename.serializeStallCycles       816754                       # count of cycles rename stalled for serializing inst
system.cpu00.rename.RunCycles                  916527                       # Number of cycles rename is running
system.cpu00.rename.UnblockCycles             5223197                       # Number of cycles rename is unblocking
system.cpu00.rename.RenamedInsts              8953133                       # Number of instructions processed by rename
system.cpu00.rename.ROBFullEvents                4779                       # Number of times rename has blocked due to ROB full
system.cpu00.rename.IQFullEvents              1466308                       # Number of times rename has blocked due to IQ full
system.cpu00.rename.LQFullEvents              2793745                       # Number of times rename has blocked due to LQ full
system.cpu00.rename.SQFullEvents              1332857                       # Number of times rename has blocked due to SQ full
system.cpu00.rename.RenamedOperands           7169649                       # Number of destination operands rename has renamed
system.cpu00.rename.RenameLookups            13246110                       # Number of register rename lookups that rename has made
system.cpu00.rename.int_rename_lookups        6920416                       # Number of integer rename lookups
system.cpu00.rename.fp_rename_lookups         6324323                       # Number of floating rename lookups
system.cpu00.rename.CommittedMaps             6840358                       # Number of HB maps that are committed
system.cpu00.rename.UndoneMaps                 329291                       # Number of HB maps that are undone due to squashing
system.cpu00.rename.serializingInsts            14444                       # count of serializing insts renamed
system.cpu00.rename.tempSerializingInsts        12990                       # count of temporary serializing insts renamed
system.cpu00.rename.skidInsts                 3353186                       # count of insts added to the skid buffer
system.cpu00.memDep0.insertedLoads            2316663                       # Number of loads inserted to the mem dependence unit.
system.cpu00.memDep0.insertedStores            690285                       # Number of stores inserted to the mem dependence unit.
system.cpu00.memDep0.conflictingLoads           91781                       # Number of conflicting loads.
system.cpu00.memDep0.conflictingStores          68918                       # Number of conflicting stores.
system.cpu00.iq.iqInstsAdded                  8735235                       # Number of instructions added to the IQ (excludes non-spec)
system.cpu00.iq.iqNonSpecInstsAdded             19523                       # Number of non-speculative instructions added to the IQ
system.cpu00.iq.iqInstsIssued                12173558                       # Number of instructions issued
system.cpu00.iq.iqSquashedInstsIssued            8594                       # Number of squashed instructions issued
system.cpu00.iq.iqSquashedInstsExamined        415991                       # Number of squashed instructions iterated over during squash; mainly for profiling
system.cpu00.iq.iqSquashedOperandsExamined       250149                       # Number of squashed operands that are examined and possibly removed from graph
system.cpu00.iq.iqSquashedNonSpecRemoved         2642                       # Number of squashed non-spec instructions that were removed
system.cpu00.iq.issued_per_cycle::samples     19098927                       # Number of insts issued each cycle
system.cpu00.iq.issued_per_cycle::mean       0.637395                       # Number of insts issued each cycle
system.cpu00.iq.issued_per_cycle::stdev      1.477848                       # Number of insts issued each cycle
system.cpu00.iq.issued_per_cycle::underflows            0      0.00%      0.00% # Number of insts issued each cycle
system.cpu00.iq.issued_per_cycle::0          14921477     78.13%     78.13% # Number of insts issued each cycle
system.cpu00.iq.issued_per_cycle::1           1324746      6.94%     85.06% # Number of insts issued each cycle
system.cpu00.iq.issued_per_cycle::2            756918      3.96%     89.03% # Number of insts issued each cycle
system.cpu00.iq.issued_per_cycle::3            421471      2.21%     91.23% # Number of insts issued each cycle
system.cpu00.iq.issued_per_cycle::4            981066      5.14%     96.37% # Number of insts issued each cycle
system.cpu00.iq.issued_per_cycle::5            317438      1.66%     98.03% # Number of insts issued each cycle
system.cpu00.iq.issued_per_cycle::6            176092      0.92%     98.95% # Number of insts issued each cycle
system.cpu00.iq.issued_per_cycle::7             95195      0.50%     99.45% # Number of insts issued each cycle
system.cpu00.iq.issued_per_cycle::8            104524      0.55%    100.00% # Number of insts issued each cycle
system.cpu00.iq.issued_per_cycle::overflows            0      0.00%    100.00% # Number of insts issued each cycle
system.cpu00.iq.issued_per_cycle::min_value            0                       # Number of insts issued each cycle
system.cpu00.iq.issued_per_cycle::max_value            8                       # Number of insts issued each cycle
system.cpu00.iq.issued_per_cycle::total      19098927                       # Number of insts issued each cycle
system.cpu00.iq.fu_full::No_OpClass                 0      0.00%      0.00% # attempts to use FU when none available
system.cpu00.iq.fu_full::IntAlu                  9575      0.93%      0.93% # attempts to use FU when none available
system.cpu00.iq.fu_full::IntMult                    0      0.00%      0.93% # attempts to use FU when none available
system.cpu00.iq.fu_full::IntDiv                     0      0.00%      0.93% # attempts to use FU when none available
system.cpu00.iq.fu_full::FloatAdd               56198      5.45%      6.38% # attempts to use FU when none available
system.cpu00.iq.fu_full::FloatCmp                   0      0.00%      6.38% # attempts to use FU when none available
system.cpu00.iq.fu_full::FloatCvt                   0      0.00%      6.38% # attempts to use FU when none available
system.cpu00.iq.fu_full::FloatMult              90310      8.76%     15.15% # attempts to use FU when none available
system.cpu00.iq.fu_full::FloatDiv                  40      0.00%     15.15% # attempts to use FU when none available
system.cpu00.iq.fu_full::FloatSqrt                  0      0.00%     15.15% # attempts to use FU when none available
system.cpu00.iq.fu_full::SimdAdd                    0      0.00%     15.15% # attempts to use FU when none available
system.cpu00.iq.fu_full::SimdAddAcc                 0      0.00%     15.15% # attempts to use FU when none available
system.cpu00.iq.fu_full::SimdAlu                    0      0.00%     15.15% # attempts to use FU when none available
system.cpu00.iq.fu_full::SimdCmp                    0      0.00%     15.15% # attempts to use FU when none available
system.cpu00.iq.fu_full::SimdCvt                    0      0.00%     15.15% # attempts to use FU when none available
system.cpu00.iq.fu_full::SimdMisc                   0      0.00%     15.15% # attempts to use FU when none available
system.cpu00.iq.fu_full::SimdMult                   0      0.00%     15.15% # attempts to use FU when none available
system.cpu00.iq.fu_full::SimdMultAcc                0      0.00%     15.15% # attempts to use FU when none available
system.cpu00.iq.fu_full::SimdShift                  0      0.00%     15.15% # attempts to use FU when none available
system.cpu00.iq.fu_full::SimdShiftAcc               0      0.00%     15.15% # attempts to use FU when none available
system.cpu00.iq.fu_full::SimdSqrt                   0      0.00%     15.15% # attempts to use FU when none available
system.cpu00.iq.fu_full::SimdFloatAdd               0      0.00%     15.15% # attempts to use FU when none available
system.cpu00.iq.fu_full::SimdFloatAlu               0      0.00%     15.15% # attempts to use FU when none available
system.cpu00.iq.fu_full::SimdFloatCmp               0      0.00%     15.15% # attempts to use FU when none available
system.cpu00.iq.fu_full::SimdFloatCvt               0      0.00%     15.15% # attempts to use FU when none available
system.cpu00.iq.fu_full::SimdFloatDiv               0      0.00%     15.15% # attempts to use FU when none available
system.cpu00.iq.fu_full::SimdFloatMisc              0      0.00%     15.15% # attempts to use FU when none available
system.cpu00.iq.fu_full::SimdFloatMult              0      0.00%     15.15% # attempts to use FU when none available
system.cpu00.iq.fu_full::SimdFloatMultAcc            0      0.00%     15.15% # attempts to use FU when none available
system.cpu00.iq.fu_full::SimdFloatSqrt              0      0.00%     15.15% # attempts to use FU when none available
system.cpu00.iq.fu_full::MemRead               850463     82.54%     97.69% # attempts to use FU when none available
system.cpu00.iq.fu_full::MemWrite               23800      2.31%    100.00% # attempts to use FU when none available
system.cpu00.iq.fu_full::IprAccess                  0      0.00%    100.00% # attempts to use FU when none available
system.cpu00.iq.fu_full::InstPrefetch               0      0.00%    100.00% # attempts to use FU when none available
system.cpu00.iq.FU_type_0::No_OpClass               0      0.00%      0.00% # Type of FU issued
system.cpu00.iq.FU_type_0::IntAlu             2661189     21.86%     21.86% # Type of FU issued
system.cpu00.iq.FU_type_0::IntMult                898      0.01%     21.87% # Type of FU issued
system.cpu00.iq.FU_type_0::IntDiv                   0      0.00%     21.87% # Type of FU issued
system.cpu00.iq.FU_type_0::FloatAdd           2140112     17.58%     39.45% # Type of FU issued
system.cpu00.iq.FU_type_0::FloatCmp            114811      0.94%     40.39% # Type of FU issued
system.cpu00.iq.FU_type_0::FloatCvt                 0      0.00%     40.39% # Type of FU issued
system.cpu00.iq.FU_type_0::FloatMult           738388      6.07%     46.46% # Type of FU issued
system.cpu00.iq.FU_type_0::FloatDiv              9051      0.07%     46.53% # Type of FU issued
system.cpu00.iq.FU_type_0::FloatSqrt                0      0.00%     46.53% # Type of FU issued
system.cpu00.iq.FU_type_0::SimdAdd                  0      0.00%     46.53% # Type of FU issued
system.cpu00.iq.FU_type_0::SimdAddAcc               0      0.00%     46.53% # Type of FU issued
system.cpu00.iq.FU_type_0::SimdAlu                  0      0.00%     46.53% # Type of FU issued
system.cpu00.iq.FU_type_0::SimdCmp                  0      0.00%     46.53% # Type of FU issued
system.cpu00.iq.FU_type_0::SimdCvt                  0      0.00%     46.53% # Type of FU issued
system.cpu00.iq.FU_type_0::SimdMisc                 0      0.00%     46.53% # Type of FU issued
system.cpu00.iq.FU_type_0::SimdMult                 0      0.00%     46.53% # Type of FU issued
system.cpu00.iq.FU_type_0::SimdMultAcc              0      0.00%     46.53% # Type of FU issued
system.cpu00.iq.FU_type_0::SimdShift                0      0.00%     46.53% # Type of FU issued
system.cpu00.iq.FU_type_0::SimdShiftAcc             0      0.00%     46.53% # Type of FU issued
system.cpu00.iq.FU_type_0::SimdSqrt                 0      0.00%     46.53% # Type of FU issued
system.cpu00.iq.FU_type_0::SimdFloatAdd             0      0.00%     46.53% # Type of FU issued
system.cpu00.iq.FU_type_0::SimdFloatAlu             0      0.00%     46.53% # Type of FU issued
system.cpu00.iq.FU_type_0::SimdFloatCmp             0      0.00%     46.53% # Type of FU issued
system.cpu00.iq.FU_type_0::SimdFloatCvt             0      0.00%     46.53% # Type of FU issued
system.cpu00.iq.FU_type_0::SimdFloatDiv             0      0.00%     46.53% # Type of FU issued
system.cpu00.iq.FU_type_0::SimdFloatMisc            0      0.00%     46.53% # Type of FU issued
system.cpu00.iq.FU_type_0::SimdFloatMult            0      0.00%     46.53% # Type of FU issued
system.cpu00.iq.FU_type_0::SimdFloatMultAcc            0      0.00%     46.53% # Type of FU issued
system.cpu00.iq.FU_type_0::SimdFloatSqrt            0      0.00%     46.53% # Type of FU issued
system.cpu00.iq.FU_type_0::MemRead            5846749     48.03%     94.56% # Type of FU issued
system.cpu00.iq.FU_type_0::MemWrite            662360      5.44%    100.00% # Type of FU issued
system.cpu00.iq.FU_type_0::IprAccess                0      0.00%    100.00% # Type of FU issued
system.cpu00.iq.FU_type_0::InstPrefetch             0      0.00%    100.00% # Type of FU issued
system.cpu00.iq.FU_type_0::total             12173558                       # Type of FU issued
system.cpu00.iq.rate                         0.623028                       # Inst issue rate
system.cpu00.iq.fu_busy_cnt                   1030386                       # FU busy when requested
system.cpu00.iq.fu_busy_rate                 0.084641                       # FU busy rate (busy events/executed inst)
system.cpu00.iq.int_inst_queue_reads         27105250                       # Number of integer instruction queue reads
system.cpu00.iq.int_inst_queue_writes         3799601                       # Number of integer instruction queue writes
system.cpu00.iq.int_inst_queue_wakeup_accesses      3299105                       # Number of integer instruction queue wakeup accesses
system.cpu00.iq.fp_inst_queue_reads          17379773                       # Number of floating instruction queue reads
system.cpu00.iq.fp_inst_queue_writes          5372864                       # Number of floating instruction queue writes
system.cpu00.iq.fp_inst_queue_wakeup_accesses      5272106                       # Number of floating instruction queue wakeup accesses
system.cpu00.iq.int_alu_accesses              4085303                       # Number of integer alu accesses
system.cpu00.iq.fp_alu_accesses               9118641                       # Number of floating point alu accesses
system.cpu00.iew.lsq.thread0.forwLoads          37832                       # Number of loads that had data forwarded from stores
system.cpu00.iew.lsq.thread0.invAddrLoads            0                       # Number of loads ignored due to an invalid address
system.cpu00.iew.lsq.thread0.squashedLoads        95760                       # Number of loads squashed
system.cpu00.iew.lsq.thread0.ignoredResponses          182                       # Number of memory responses ignored because the instruction is squashed
system.cpu00.iew.lsq.thread0.memOrderViolation         1743                       # Number of memory ordering violations
system.cpu00.iew.lsq.thread0.squashedStores        64407                       # Number of stores squashed
system.cpu00.iew.lsq.thread0.invAddrSwpfs            0                       # Number of software prefetches ignored due to an invalid address
system.cpu00.iew.lsq.thread0.blockedLoads            0                       # Number of blocked loads due to partial load-store forwarding
system.cpu00.iew.lsq.thread0.rescheduledLoads         1072                       # Number of loads that were rescheduled
system.cpu00.iew.lsq.thread0.cacheBlocked      3672485                       # Number of times an access to memory failed due to the cache being blocked
system.cpu00.iew.iewIdleCycles                      0                       # Number of cycles IEW is idle
system.cpu00.iew.iewSquashCycles                12345                       # Number of cycles IEW is squashing
system.cpu00.iew.iewBlockCycles               6880994                       # Number of cycles IEW is blocking
system.cpu00.iew.iewUnblockCycles             3753935                       # Number of cycles IEW is unblocking
system.cpu00.iew.iewDispatchedInsts           8898058                       # Number of instructions dispatched to IQ
system.cpu00.iew.iewDispSquashedInsts            2069                       # Number of squashed instructions skipped by dispatch
system.cpu00.iew.iewDispLoadInsts             2316663                       # Number of dispatched load instructions
system.cpu00.iew.iewDispStoreInsts             690285                       # Number of dispatched store instructions
system.cpu00.iew.iewDispNonSpecInsts            12790                       # Number of dispatched non-speculative instructions
system.cpu00.iew.iewIQFullEvents               117030                       # Number of times the IQ has become full, causing a stall
system.cpu00.iew.iewLSQFullEvents             3526058                       # Number of times the LSQ has become full, causing a stall
system.cpu00.iew.memOrderViolationEvents         1743                       # Number of memory order violations
system.cpu00.iew.predictedTakenIncorrect         4204                       # Number of branches that were predicted taken incorrectly
system.cpu00.iew.predictedNotTakenIncorrect         5776                       # Number of branches that were predicted not taken incorrectly
system.cpu00.iew.branchMispredicts               9980                       # Number of branch mispredicts detected at execute
system.cpu00.iew.iewExecutedInsts            12156928                       # Number of executed instructions
system.cpu00.iew.iewExecLoadInsts             5835282                       # Number of load instructions executed
system.cpu00.iew.iewExecSquashedInsts           16630                       # Number of squashed instructions skipped in execute
system.cpu00.iew.exec_swp                           0                       # number of swp insts executed
system.cpu00.iew.exec_nop                      143300                       # number of nop insts executed
system.cpu00.iew.exec_refs                    6495066                       # number of memory reference insts executed
system.cpu00.iew.exec_branches                 499065                       # Number of branches executed
system.cpu00.iew.exec_stores                   659784                       # Number of stores executed
system.cpu00.iew.exec_rate                   0.622177                       # Inst execution rate
system.cpu00.iew.wb_sent                      8594327                       # cumulative count of insts sent to commit
system.cpu00.iew.wb_count                     8571211                       # cumulative count of insts written-back
system.cpu00.iew.wb_producers                 5811465                       # num instructions producing a value
system.cpu00.iew.wb_consumers                 7323763                       # num instructions consuming a value
system.cpu00.iew.wb_rate                     0.438664                       # insts written-back per cycle
system.cpu00.iew.wb_fanout                   0.793508                       # average fanout of values written-back
system.cpu00.commit.commitSquashedInsts        416966                       # The number of squashed insts skipped by commit
system.cpu00.commit.commitNonSpecStalls         16881                       # The number of times commit has been forced to stall to communicate backwards
system.cpu00.commit.branchMispredicts            8755                       # The number of times a branch was mispredicted
system.cpu00.commit.committed_per_cycle::samples     19035696                       # Number of insts commited each cycle
system.cpu00.commit.committed_per_cycle::mean     0.444865                       # Number of insts commited each cycle
system.cpu00.commit.committed_per_cycle::stdev     1.606557                       # Number of insts commited each cycle
system.cpu00.commit.committed_per_cycle::underflows            0      0.00%      0.00% # Number of insts commited each cycle
system.cpu00.commit.committed_per_cycle::0     17121806     89.95%     89.95% # Number of insts commited each cycle
system.cpu00.commit.committed_per_cycle::1       424983      2.23%     92.18% # Number of insts commited each cycle
system.cpu00.commit.committed_per_cycle::2       295520      1.55%     93.73% # Number of insts commited each cycle
system.cpu00.commit.committed_per_cycle::3       195534      1.03%     94.76% # Number of insts commited each cycle
system.cpu00.commit.committed_per_cycle::4       134935      0.71%     95.47% # Number of insts commited each cycle
system.cpu00.commit.committed_per_cycle::5       104892      0.55%     96.02% # Number of insts commited each cycle
system.cpu00.commit.committed_per_cycle::6        88845      0.47%     96.48% # Number of insts commited each cycle
system.cpu00.commit.committed_per_cycle::7        85019      0.45%     96.93% # Number of insts commited each cycle
system.cpu00.commit.committed_per_cycle::8       584162      3.07%    100.00% # Number of insts commited each cycle
system.cpu00.commit.committed_per_cycle::overflows            0      0.00%    100.00% # Number of insts commited each cycle
system.cpu00.commit.committed_per_cycle::min_value            0                       # Number of insts commited each cycle
system.cpu00.commit.committed_per_cycle::max_value            8                       # Number of insts commited each cycle
system.cpu00.commit.committed_per_cycle::total     19035696                       # Number of insts commited each cycle
system.cpu00.commit.committedInsts            8468324                       # Number of instructions committed
system.cpu00.commit.committedOps              8468324                       # Number of ops (including micro ops) committed
system.cpu00.commit.swp_count                       0                       # Number of s/w prefetches committed
system.cpu00.commit.refs                      2846781                       # Number of memory references committed
system.cpu00.commit.loads                     2220903                       # Number of loads committed
system.cpu00.commit.membars                      5494                       # Number of memory barriers committed
system.cpu00.commit.branches                   465610                       # Number of branches committed
system.cpu00.commit.fp_insts                  5254286                       # Number of committed floating point instructions.
system.cpu00.commit.int_insts                 5443162                       # Number of committed integer instructions.
system.cpu00.commit.function_calls              33952                       # Number of function calls committed.
system.cpu00.commit.op_class_0::No_OpClass       129558      1.53%      1.53% # Class of committed instruction
system.cpu00.commit.op_class_0::IntAlu        2494478     29.46%     30.99% # Class of committed instruction
system.cpu00.commit.op_class_0::IntMult           770      0.01%     31.00% # Class of committed instruction
system.cpu00.commit.op_class_0::IntDiv              0      0.00%     31.00% # Class of committed instruction
system.cpu00.commit.op_class_0::FloatAdd      2131323     25.17%     56.16% # Class of committed instruction
system.cpu00.commit.op_class_0::FloatCmp       114740      1.35%     57.52% # Class of committed instruction
system.cpu00.commit.op_class_0::FloatCvt            0      0.00%     57.52% # Class of committed instruction
system.cpu00.commit.op_class_0::FloatMult       736165      8.69%     66.21% # Class of committed instruction
system.cpu00.commit.op_class_0::FloatDiv         9014      0.11%     66.32% # Class of committed instruction
system.cpu00.commit.op_class_0::FloatSqrt            0      0.00%     66.32% # Class of committed instruction
system.cpu00.commit.op_class_0::SimdAdd             0      0.00%     66.32% # Class of committed instruction
system.cpu00.commit.op_class_0::SimdAddAcc            0      0.00%     66.32% # Class of committed instruction
system.cpu00.commit.op_class_0::SimdAlu             0      0.00%     66.32% # Class of committed instruction
system.cpu00.commit.op_class_0::SimdCmp             0      0.00%     66.32% # Class of committed instruction
system.cpu00.commit.op_class_0::SimdCvt             0      0.00%     66.32% # Class of committed instruction
system.cpu00.commit.op_class_0::SimdMisc            0      0.00%     66.32% # Class of committed instruction
system.cpu00.commit.op_class_0::SimdMult            0      0.00%     66.32% # Class of committed instruction
system.cpu00.commit.op_class_0::SimdMultAcc            0      0.00%     66.32% # Class of committed instruction
system.cpu00.commit.op_class_0::SimdShift            0      0.00%     66.32% # Class of committed instruction
system.cpu00.commit.op_class_0::SimdShiftAcc            0      0.00%     66.32% # Class of committed instruction
system.cpu00.commit.op_class_0::SimdSqrt            0      0.00%     66.32% # Class of committed instruction
system.cpu00.commit.op_class_0::SimdFloatAdd            0      0.00%     66.32% # Class of committed instruction
system.cpu00.commit.op_class_0::SimdFloatAlu            0      0.00%     66.32% # Class of committed instruction
system.cpu00.commit.op_class_0::SimdFloatCmp            0      0.00%     66.32% # Class of committed instruction
system.cpu00.commit.op_class_0::SimdFloatCvt            0      0.00%     66.32% # Class of committed instruction
system.cpu00.commit.op_class_0::SimdFloatDiv            0      0.00%     66.32% # Class of committed instruction
system.cpu00.commit.op_class_0::SimdFloatMisc            0      0.00%     66.32% # Class of committed instruction
system.cpu00.commit.op_class_0::SimdFloatMult            0      0.00%     66.32% # Class of committed instruction
system.cpu00.commit.op_class_0::SimdFloatMultAcc            0      0.00%     66.32% # Class of committed instruction
system.cpu00.commit.op_class_0::SimdFloatSqrt            0      0.00%     66.32% # Class of committed instruction
system.cpu00.commit.op_class_0::MemRead       2226397     26.29%     92.61% # Class of committed instruction
system.cpu00.commit.op_class_0::MemWrite       625879      7.39%    100.00% # Class of committed instruction
system.cpu00.commit.op_class_0::IprAccess            0      0.00%    100.00% # Class of committed instruction
system.cpu00.commit.op_class_0::InstPrefetch            0      0.00%    100.00% # Class of committed instruction
system.cpu00.commit.op_class_0::total         8468324                       # Class of committed instruction
system.cpu00.commit.bw_lim_events              584162                       # number cycles where commit BW limit reached
system.cpu00.rob.rob_reads                   27303336                       # The number of ROB reads
system.cpu00.rob.rob_writes                  17831306                       # The number of ROB writes
system.cpu00.timesIdled                          9262                       # Number of times that the entire CPU went into an idle state and unscheduled itself
system.cpu00.idleCycles                        440421                       # Total number of cycles that the CPU has spent unscheduled due to idling
system.cpu00.quiesceCycles                    1090760                       # Total number of cycles that CPU has spent quiesced or waiting for an interrupt
system.cpu00.committedInsts                   8338766                       # Number of Instructions Simulated
system.cpu00.committedOps                     8338766                       # Number of Ops (including micro ops) Simulated
system.cpu00.cpi                             2.343194                       # CPI: Cycles Per Instruction
system.cpu00.cpi_total                       2.343194                       # CPI: Total CPI of All Threads
system.cpu00.ipc                             0.426768                       # IPC: Instructions Per Cycle
system.cpu00.ipc_total                       0.426768                       # IPC: Total IPC of All Threads
system.cpu00.int_regfile_reads               10220578                       # number of integer regfile reads
system.cpu00.int_regfile_writes               2322659                       # number of integer regfile writes
system.cpu00.fp_regfile_reads                 6290924                       # number of floating regfile reads
system.cpu00.fp_regfile_writes                4702740                       # number of floating regfile writes
system.cpu00.misc_regfile_reads                 30289                       # number of misc regfile reads
system.cpu00.misc_regfile_writes                13949                       # number of misc regfile writes
system.cpu00.dcache.tags.replacements          337893                       # number of replacements
system.cpu00.dcache.tags.tagsinuse          63.560666                       # Cycle average of tags in use
system.cpu00.dcache.tags.total_refs           1768253                       # Total number of references to valid blocks.
system.cpu00.dcache.tags.sampled_refs          337957                       # Sample count of references to valid blocks.
system.cpu00.dcache.tags.avg_refs            5.232183                       # Average number of references to valid blocks.
system.cpu00.dcache.tags.warmup_cycle        72188658                       # Cycle when the warmup percentage was hit.
system.cpu00.dcache.tags.occ_blocks::cpu00.data    63.560666                       # Average occupied blocks per requestor
system.cpu00.dcache.tags.occ_percent::cpu00.data     0.993135                       # Average percentage of cache occupancy
system.cpu00.dcache.tags.occ_percent::total     0.993135                       # Average percentage of cache occupancy
system.cpu00.dcache.tags.occ_task_id_blocks::1024           64                       # Occupied blocks per task id
system.cpu00.dcache.tags.age_task_id_blocks_1024::0           48                       # Occupied blocks per task id
system.cpu00.dcache.tags.age_task_id_blocks_1024::1           16                       # Occupied blocks per task id
system.cpu00.dcache.tags.occ_task_id_percent::1024            1                       # Percentage of cache occupancy per task id
system.cpu00.dcache.tags.tag_accesses         6064893                       # Number of tag accesses
system.cpu00.dcache.tags.data_accesses        6064893                       # Number of data accesses
system.cpu00.dcache.ReadReq_hits::cpu00.data      1419661                       # number of ReadReq hits
system.cpu00.dcache.ReadReq_hits::total       1419661                       # number of ReadReq hits
system.cpu00.dcache.WriteReq_hits::cpu00.data       326679                       # number of WriteReq hits
system.cpu00.dcache.WriteReq_hits::total       326679                       # number of WriteReq hits
system.cpu00.dcache.LoadLockedReq_hits::cpu00.data         6221                       # number of LoadLockedReq hits
system.cpu00.dcache.LoadLockedReq_hits::total         6221                       # number of LoadLockedReq hits
system.cpu00.dcache.StoreCondReq_hits::cpu00.data         6968                       # number of StoreCondReq hits
system.cpu00.dcache.StoreCondReq_hits::total         6968                       # number of StoreCondReq hits
system.cpu00.dcache.demand_hits::cpu00.data      1746340                       # number of demand (read+write) hits
system.cpu00.dcache.demand_hits::total        1746340                       # number of demand (read+write) hits
system.cpu00.dcache.overall_hits::cpu00.data      1746340                       # number of overall hits
system.cpu00.dcache.overall_hits::total       1746340                       # number of overall hits
system.cpu00.dcache.ReadReq_misses::cpu00.data       807655                       # number of ReadReq misses
system.cpu00.dcache.ReadReq_misses::total       807655                       # number of ReadReq misses
system.cpu00.dcache.WriteReq_misses::cpu00.data       292227                       # number of WriteReq misses
system.cpu00.dcache.WriteReq_misses::total       292227                       # number of WriteReq misses
system.cpu00.dcache.LoadLockedReq_misses::cpu00.data          837                       # number of LoadLockedReq misses
system.cpu00.dcache.LoadLockedReq_misses::total          837                       # number of LoadLockedReq misses
system.cpu00.dcache.StoreCondReq_misses::cpu00.data            3                       # number of StoreCondReq misses
system.cpu00.dcache.StoreCondReq_misses::total            3                       # number of StoreCondReq misses
system.cpu00.dcache.demand_misses::cpu00.data      1099882                       # number of demand (read+write) misses
system.cpu00.dcache.demand_misses::total      1099882                       # number of demand (read+write) misses
system.cpu00.dcache.overall_misses::cpu00.data      1099882                       # number of overall misses
system.cpu00.dcache.overall_misses::total      1099882                       # number of overall misses
system.cpu00.dcache.ReadReq_miss_latency::cpu00.data 117814262940                       # number of ReadReq miss cycles
system.cpu00.dcache.ReadReq_miss_latency::total 117814262940                       # number of ReadReq miss cycles
system.cpu00.dcache.WriteReq_miss_latency::cpu00.data  62431161199                       # number of WriteReq miss cycles
system.cpu00.dcache.WriteReq_miss_latency::total  62431161199                       # number of WriteReq miss cycles
system.cpu00.dcache.LoadLockedReq_miss_latency::cpu00.data     10347993                       # number of LoadLockedReq miss cycles
system.cpu00.dcache.LoadLockedReq_miss_latency::total     10347993                       # number of LoadLockedReq miss cycles
system.cpu00.dcache.StoreCondReq_miss_latency::cpu00.data        33669                       # number of StoreCondReq miss cycles
system.cpu00.dcache.StoreCondReq_miss_latency::total        33669                       # number of StoreCondReq miss cycles
system.cpu00.dcache.demand_miss_latency::cpu00.data 180245424139                       # number of demand (read+write) miss cycles
system.cpu00.dcache.demand_miss_latency::total 180245424139                       # number of demand (read+write) miss cycles
system.cpu00.dcache.overall_miss_latency::cpu00.data 180245424139                       # number of overall miss cycles
system.cpu00.dcache.overall_miss_latency::total 180245424139                       # number of overall miss cycles
system.cpu00.dcache.ReadReq_accesses::cpu00.data      2227316                       # number of ReadReq accesses(hits+misses)
system.cpu00.dcache.ReadReq_accesses::total      2227316                       # number of ReadReq accesses(hits+misses)
system.cpu00.dcache.WriteReq_accesses::cpu00.data       618906                       # number of WriteReq accesses(hits+misses)
system.cpu00.dcache.WriteReq_accesses::total       618906                       # number of WriteReq accesses(hits+misses)
system.cpu00.dcache.LoadLockedReq_accesses::cpu00.data         7058                       # number of LoadLockedReq accesses(hits+misses)
system.cpu00.dcache.LoadLockedReq_accesses::total         7058                       # number of LoadLockedReq accesses(hits+misses)
system.cpu00.dcache.StoreCondReq_accesses::cpu00.data         6971                       # number of StoreCondReq accesses(hits+misses)
system.cpu00.dcache.StoreCondReq_accesses::total         6971                       # number of StoreCondReq accesses(hits+misses)
system.cpu00.dcache.demand_accesses::cpu00.data      2846222                       # number of demand (read+write) accesses
system.cpu00.dcache.demand_accesses::total      2846222                       # number of demand (read+write) accesses
system.cpu00.dcache.overall_accesses::cpu00.data      2846222                       # number of overall (read+write) accesses
system.cpu00.dcache.overall_accesses::total      2846222                       # number of overall (read+write) accesses
system.cpu00.dcache.ReadReq_miss_rate::cpu00.data     0.362614                       # miss rate for ReadReq accesses
system.cpu00.dcache.ReadReq_miss_rate::total     0.362614                       # miss rate for ReadReq accesses
system.cpu00.dcache.WriteReq_miss_rate::cpu00.data     0.472167                       # miss rate for WriteReq accesses
system.cpu00.dcache.WriteReq_miss_rate::total     0.472167                       # miss rate for WriteReq accesses
system.cpu00.dcache.LoadLockedReq_miss_rate::cpu00.data     0.118589                       # miss rate for LoadLockedReq accesses
system.cpu00.dcache.LoadLockedReq_miss_rate::total     0.118589                       # miss rate for LoadLockedReq accesses
system.cpu00.dcache.StoreCondReq_miss_rate::cpu00.data     0.000430                       # miss rate for StoreCondReq accesses
system.cpu00.dcache.StoreCondReq_miss_rate::total     0.000430                       # miss rate for StoreCondReq accesses
system.cpu00.dcache.demand_miss_rate::cpu00.data     0.386436                       # miss rate for demand accesses
system.cpu00.dcache.demand_miss_rate::total     0.386436                       # miss rate for demand accesses
system.cpu00.dcache.overall_miss_rate::cpu00.data     0.386436                       # miss rate for overall accesses
system.cpu00.dcache.overall_miss_rate::total     0.386436                       # miss rate for overall accesses
system.cpu00.dcache.ReadReq_avg_miss_latency::cpu00.data 145872.015824                       # average ReadReq miss latency
system.cpu00.dcache.ReadReq_avg_miss_latency::total 145872.015824                       # average ReadReq miss latency
system.cpu00.dcache.WriteReq_avg_miss_latency::cpu00.data 213639.263993                       # average WriteReq miss latency
system.cpu00.dcache.WriteReq_avg_miss_latency::total 213639.263993                       # average WriteReq miss latency
system.cpu00.dcache.LoadLockedReq_avg_miss_latency::cpu00.data 12363.193548                       # average LoadLockedReq miss latency
system.cpu00.dcache.LoadLockedReq_avg_miss_latency::total 12363.193548                       # average LoadLockedReq miss latency
system.cpu00.dcache.StoreCondReq_avg_miss_latency::cpu00.data        11223                       # average StoreCondReq miss latency
system.cpu00.dcache.StoreCondReq_avg_miss_latency::total        11223                       # average StoreCondReq miss latency
system.cpu00.dcache.demand_avg_miss_latency::cpu00.data 163877.056029                       # average overall miss latency
system.cpu00.dcache.demand_avg_miss_latency::total 163877.056029                       # average overall miss latency
system.cpu00.dcache.overall_avg_miss_latency::cpu00.data 163877.056029                       # average overall miss latency
system.cpu00.dcache.overall_avg_miss_latency::total 163877.056029                       # average overall miss latency
system.cpu00.dcache.blocked_cycles::no_mshrs      8857565                       # number of cycles access was blocked
system.cpu00.dcache.blocked_cycles::no_targets          334                       # number of cycles access was blocked
system.cpu00.dcache.blocked::no_mshrs          240581                       # number of cycles access was blocked
system.cpu00.dcache.blocked::no_targets             2                       # number of cycles access was blocked
system.cpu00.dcache.avg_blocked_cycles::no_mshrs    36.817392                       # average number of cycles each access was blocked
system.cpu00.dcache.avg_blocked_cycles::no_targets          167                       # average number of cycles each access was blocked
system.cpu00.dcache.fast_writes                     0                       # number of fast writes performed
system.cpu00.dcache.cache_copies                    0                       # number of cache copies performed
system.cpu00.dcache.writebacks::writebacks       222468                       # number of writebacks
system.cpu00.dcache.writebacks::total          222468                       # number of writebacks
system.cpu00.dcache.ReadReq_mshr_hits::cpu00.data       531599                       # number of ReadReq MSHR hits
system.cpu00.dcache.ReadReq_mshr_hits::total       531599                       # number of ReadReq MSHR hits
system.cpu00.dcache.WriteReq_mshr_hits::cpu00.data       219697                       # number of WriteReq MSHR hits
system.cpu00.dcache.WriteReq_mshr_hits::total       219697                       # number of WriteReq MSHR hits
system.cpu00.dcache.LoadLockedReq_mshr_hits::cpu00.data          451                       # number of LoadLockedReq MSHR hits
system.cpu00.dcache.LoadLockedReq_mshr_hits::total          451                       # number of LoadLockedReq MSHR hits
system.cpu00.dcache.demand_mshr_hits::cpu00.data       751296                       # number of demand (read+write) MSHR hits
system.cpu00.dcache.demand_mshr_hits::total       751296                       # number of demand (read+write) MSHR hits
system.cpu00.dcache.overall_mshr_hits::cpu00.data       751296                       # number of overall MSHR hits
system.cpu00.dcache.overall_mshr_hits::total       751296                       # number of overall MSHR hits
system.cpu00.dcache.ReadReq_mshr_misses::cpu00.data       276056                       # number of ReadReq MSHR misses
system.cpu00.dcache.ReadReq_mshr_misses::total       276056                       # number of ReadReq MSHR misses
system.cpu00.dcache.WriteReq_mshr_misses::cpu00.data        72530                       # number of WriteReq MSHR misses
system.cpu00.dcache.WriteReq_mshr_misses::total        72530                       # number of WriteReq MSHR misses
system.cpu00.dcache.LoadLockedReq_mshr_misses::cpu00.data          386                       # number of LoadLockedReq MSHR misses
system.cpu00.dcache.LoadLockedReq_mshr_misses::total          386                       # number of LoadLockedReq MSHR misses
system.cpu00.dcache.StoreCondReq_mshr_misses::cpu00.data            3                       # number of StoreCondReq MSHR misses
system.cpu00.dcache.StoreCondReq_mshr_misses::total            3                       # number of StoreCondReq MSHR misses
system.cpu00.dcache.demand_mshr_misses::cpu00.data       348586                       # number of demand (read+write) MSHR misses
system.cpu00.dcache.demand_mshr_misses::total       348586                       # number of demand (read+write) MSHR misses
system.cpu00.dcache.overall_mshr_misses::cpu00.data       348586                       # number of overall MSHR misses
system.cpu00.dcache.overall_mshr_misses::total       348586                       # number of overall MSHR misses
system.cpu00.dcache.ReadReq_mshr_miss_latency::cpu00.data  51475160637                       # number of ReadReq MSHR miss cycles
system.cpu00.dcache.ReadReq_mshr_miss_latency::total  51475160637                       # number of ReadReq MSHR miss cycles
system.cpu00.dcache.WriteReq_mshr_miss_latency::cpu00.data  16892930856                       # number of WriteReq MSHR miss cycles
system.cpu00.dcache.WriteReq_mshr_miss_latency::total  16892930856                       # number of WriteReq MSHR miss cycles
system.cpu00.dcache.LoadLockedReq_mshr_miss_latency::cpu00.data      5513589                       # number of LoadLockedReq MSHR miss cycles
system.cpu00.dcache.LoadLockedReq_mshr_miss_latency::total      5513589                       # number of LoadLockedReq MSHR miss cycles
system.cpu00.dcache.StoreCondReq_mshr_miss_latency::cpu00.data        30186                       # number of StoreCondReq MSHR miss cycles
system.cpu00.dcache.StoreCondReq_mshr_miss_latency::total        30186                       # number of StoreCondReq MSHR miss cycles
system.cpu00.dcache.demand_mshr_miss_latency::cpu00.data  68368091493                       # number of demand (read+write) MSHR miss cycles
system.cpu00.dcache.demand_mshr_miss_latency::total  68368091493                       # number of demand (read+write) MSHR miss cycles
system.cpu00.dcache.overall_mshr_miss_latency::cpu00.data  68368091493                       # number of overall MSHR miss cycles
system.cpu00.dcache.overall_mshr_miss_latency::total  68368091493                       # number of overall MSHR miss cycles
system.cpu00.dcache.ReadReq_mshr_miss_rate::cpu00.data     0.123941                       # mshr miss rate for ReadReq accesses
system.cpu00.dcache.ReadReq_mshr_miss_rate::total     0.123941                       # mshr miss rate for ReadReq accesses
system.cpu00.dcache.WriteReq_mshr_miss_rate::cpu00.data     0.117191                       # mshr miss rate for WriteReq accesses
system.cpu00.dcache.WriteReq_mshr_miss_rate::total     0.117191                       # mshr miss rate for WriteReq accesses
system.cpu00.dcache.LoadLockedReq_mshr_miss_rate::cpu00.data     0.054690                       # mshr miss rate for LoadLockedReq accesses
system.cpu00.dcache.LoadLockedReq_mshr_miss_rate::total     0.054690                       # mshr miss rate for LoadLockedReq accesses
system.cpu00.dcache.StoreCondReq_mshr_miss_rate::cpu00.data     0.000430                       # mshr miss rate for StoreCondReq accesses
system.cpu00.dcache.StoreCondReq_mshr_miss_rate::total     0.000430                       # mshr miss rate for StoreCondReq accesses
system.cpu00.dcache.demand_mshr_miss_rate::cpu00.data     0.122473                       # mshr miss rate for demand accesses
system.cpu00.dcache.demand_mshr_miss_rate::total     0.122473                       # mshr miss rate for demand accesses
system.cpu00.dcache.overall_mshr_miss_rate::cpu00.data     0.122473                       # mshr miss rate for overall accesses
system.cpu00.dcache.overall_mshr_miss_rate::total     0.122473                       # mshr miss rate for overall accesses
system.cpu00.dcache.ReadReq_avg_mshr_miss_latency::cpu00.data 186466.371450                       # average ReadReq mshr miss latency
system.cpu00.dcache.ReadReq_avg_mshr_miss_latency::total 186466.371450                       # average ReadReq mshr miss latency
system.cpu00.dcache.WriteReq_avg_mshr_miss_latency::cpu00.data 232909.566469                       # average WriteReq mshr miss latency
system.cpu00.dcache.WriteReq_avg_mshr_miss_latency::total 232909.566469                       # average WriteReq mshr miss latency
[...]
system.tol2bus.pkt_count_system.cpu06.dcache.mem_side::system.l2.cpu_side       945311                       # Packet count per connected master and slave (bytes)
system.tol2bus.pkt_count_system.cpu07.icache.mem_side::system.l2.cpu_side        10255                       # Packet count per connected master and slave (bytes)
system.tol2bus.pkt_count_system.cpu07.dcache.mem_side::system.l2.cpu_side       939321                       # Packet count per connected master and slave (bytes)
system.tol2bus.pkt_count_system.cpu08.icache.mem_side::system.l2.cpu_side        11863                       # Packet count per connected master and slave (bytes)
system.tol2bus.pkt_count_system.cpu08.dcache.mem_side::system.l2.cpu_side       938986                       # Packet count per connected master and slave (bytes)
system.tol2bus.pkt_count_system.cpu09.icache.mem_side::system.l2.cpu_side        11419                       # Packet count per connected master and slave (bytes)
system.tol2bus.pkt_count_system.cpu09.dcache.mem_side::system.l2.cpu_side       930851                       # Packet count per connected master and slave (bytes)
system.tol2bus.pkt_count_system.cpu10.icache.mem_side::system.l2.cpu_side        10294                       # Packet count per connected master and slave (bytes)
system.tol2bus.pkt_count_system.cpu10.dcache.mem_side::system.l2.cpu_side       938687                       # Packet count per connected master and slave (bytes)
system.tol2bus.pkt_count_system.cpu11.icache.mem_side::system.l2.cpu_side        10180                       # Packet count per connected master and slave (bytes)
system.tol2bus.pkt_count_system.cpu11.dcache.mem_side::system.l2.cpu_side       940584                       # Packet count per connected master and slave (bytes)
system.tol2bus.pkt_count_system.cpu12.icache.mem_side::system.l2.cpu_side        11833                       # Packet count per connected master and slave (bytes)
system.tol2bus.pkt_count_system.cpu12.dcache.mem_side::system.l2.cpu_side       938312                       # Packet count per connected master and slave (bytes)
system.tol2bus.pkt_count_system.cpu13.icache.mem_side::system.l2.cpu_side        12241                       # Packet count per connected master and slave (bytes)
system.tol2bus.pkt_count_system.cpu13.dcache.mem_side::system.l2.cpu_side       923616                       # Packet count per connected master and slave (bytes)
system.tol2bus.pkt_count_system.cpu14.icache.mem_side::system.l2.cpu_side        11290                       # Packet count per connected master and slave (bytes)
system.tol2bus.pkt_count_system.cpu14.dcache.mem_side::system.l2.cpu_side       940167                       # Packet count per connected master and slave (bytes)
system.tol2bus.pkt_count_system.cpu15.icache.mem_side::system.l2.cpu_side        12892                       # Packet count per connected master and slave (bytes)
system.tol2bus.pkt_count_system.cpu15.dcache.mem_side::system.l2.cpu_side       927966                       # Packet count per connected master and slave (bytes)
system.tol2bus.pkt_count::total              15254264                       # Packet count per connected master and slave (bytes)
system.tol2bus.pkt_size_system.cpu00.icache.mem_side::system.l2.cpu_side      1534080                       # Cumulative packet size per connected master and slave (bytes)
system.tol2bus.pkt_size_system.cpu00.dcache.mem_side::system.l2.cpu_side     35341632                       # Cumulative packet size per connected master and slave (bytes)
system.tol2bus.pkt_size_system.cpu01.icache.mem_side::system.l2.cpu_side       530816                       # Cumulative packet size per connected master and slave (bytes)
system.tol2bus.pkt_size_system.cpu01.dcache.mem_side::system.l2.cpu_side     32840384                       # Cumulative packet size per connected master and slave (bytes)
system.tol2bus.pkt_size_system.cpu02.icache.mem_side::system.l2.cpu_side       457088                       # Cumulative packet size per connected master and slave (bytes)
system.tol2bus.pkt_size_system.cpu02.dcache.mem_side::system.l2.cpu_side     33141824                       # Cumulative packet size per connected master and slave (bytes)
system.tol2bus.pkt_size_system.cpu03.icache.mem_side::system.l2.cpu_side       457984                       # Cumulative packet size per connected master and slave (bytes)
system.tol2bus.pkt_size_system.cpu03.dcache.mem_side::system.l2.cpu_side     32580096                       # Cumulative packet size per connected master and slave (bytes)
system.tol2bus.pkt_size_system.cpu04.icache.mem_side::system.l2.cpu_side       533504                       # Cumulative packet size per connected master and slave (bytes)
system.tol2bus.pkt_size_system.cpu04.dcache.mem_side::system.l2.cpu_side     32758720                       # Cumulative packet size per connected master and slave (bytes)
system.tol2bus.pkt_size_system.cpu05.icache.mem_side::system.l2.cpu_side       473600                       # Cumulative packet size per connected master and slave (bytes)
system.tol2bus.pkt_size_system.cpu05.dcache.mem_side::system.l2.cpu_side     32579136                       # Cumulative packet size per connected master and slave (bytes)
system.tol2bus.pkt_size_system.cpu06.icache.mem_side::system.l2.cpu_side       428288                       # Cumulative packet size per connected master and slave (bytes)
system.tol2bus.pkt_size_system.cpu06.dcache.mem_side::system.l2.cpu_side     32768896                       # Cumulative packet size per connected master and slave (bytes)
system.tol2bus.pkt_size_system.cpu07.icache.mem_side::system.l2.cpu_side       426624                       # Cumulative packet size per connected master and slave (bytes)
system.tol2bus.pkt_size_system.cpu07.dcache.mem_side::system.l2.cpu_side     32488576                       # Cumulative packet size per connected master and slave (bytes)
system.tol2bus.pkt_size_system.cpu08.icache.mem_side::system.l2.cpu_side       495232                       # Cumulative packet size per connected master and slave (bytes)
system.tol2bus.pkt_size_system.cpu08.dcache.mem_side::system.l2.cpu_side     32348800                       # Cumulative packet size per connected master and slave (bytes)
system.tol2bus.pkt_size_system.cpu09.icache.mem_side::system.l2.cpu_side       476288                       # Cumulative packet size per connected master and slave (bytes)
system.tol2bus.pkt_size_system.cpu09.dcache.mem_side::system.l2.cpu_side     31850752                       # Cumulative packet size per connected master and slave (bytes)
system.tol2bus.pkt_size_system.cpu10.icache.mem_side::system.l2.cpu_side       428288                       # Cumulative packet size per connected master and slave (bytes)
system.tol2bus.pkt_size_system.cpu10.dcache.mem_side::system.l2.cpu_side     32090496                       # Cumulative packet size per connected master and slave (bytes)
system.tol2bus.pkt_size_system.cpu11.icache.mem_side::system.l2.cpu_side       423424                       # Cumulative packet size per connected master and slave (bytes)
system.tol2bus.pkt_size_system.cpu11.dcache.mem_side::system.l2.cpu_side     32378944                       # Cumulative packet size per connected master and slave (bytes)
system.tol2bus.pkt_size_system.cpu12.icache.mem_side::system.l2.cpu_side       493952                       # Cumulative packet size per connected master and slave (bytes)
system.tol2bus.pkt_size_system.cpu12.dcache.mem_side::system.l2.cpu_side     32409344                       # Cumulative packet size per connected master and slave (bytes)
system.tol2bus.pkt_size_system.cpu13.icache.mem_side::system.l2.cpu_side       511360                       # Cumulative packet size per connected master and slave (bytes)
system.tol2bus.pkt_size_system.cpu13.dcache.mem_side::system.l2.cpu_side     31834752                       # Cumulative packet size per connected master and slave (bytes)
system.tol2bus.pkt_size_system.cpu14.icache.mem_side::system.l2.cpu_side       470784                       # Cumulative packet size per connected master and slave (bytes)
system.tol2bus.pkt_size_system.cpu14.dcache.mem_side::system.l2.cpu_side     32188032                       # Cumulative packet size per connected master and slave (bytes)
system.tol2bus.pkt_size_system.cpu15.icache.mem_side::system.l2.cpu_side       539136                       # Cumulative packet size per connected master and slave (bytes)
system.tol2bus.pkt_size_system.cpu15.dcache.mem_side::system.l2.cpu_side     32564736                       # Cumulative packet size per connected master and slave (bytes)
system.tol2bus.pkt_size::total              530845568                       # Cumulative packet size per connected master and slave (bytes)
system.tol2bus.snoops                          945211                       # Total snoops (count)
system.tol2bus.snoop_fanout::samples          6048177                       # Request fanout histogram
system.tol2bus.snoop_fanout::mean            0.546045                       # Request fanout histogram
system.tol2bus.snoop_fanout::stdev           2.221483                       # Request fanout histogram
system.tol2bus.snoop_fanout::underflows             0      0.00%      0.00% # Request fanout histogram
system.tol2bus.snoop_fanout::0                5345428     88.38%     88.38% # Request fanout histogram
system.tol2bus.snoop_fanout::1                 313029      5.18%     93.56% # Request fanout histogram
system.tol2bus.snoop_fanout::2                  79638      1.32%     94.87% # Request fanout histogram
system.tol2bus.snoop_fanout::3                  34136      0.56%     95.44% # Request fanout histogram
system.tol2bus.snoop_fanout::4                  24087      0.40%     95.84% # Request fanout histogram
system.tol2bus.snoop_fanout::5                  21676      0.36%     96.19% # Request fanout histogram
system.tol2bus.snoop_fanout::6                  20652      0.34%     96.54% # Request fanout histogram
system.tol2bus.snoop_fanout::7                  21133      0.35%     96.89% # Request fanout histogram
system.tol2bus.snoop_fanout::8                  19815      0.33%     97.21% # Request fanout histogram
system.tol2bus.snoop_fanout::9                  19922      0.33%     97.54% # Request fanout histogram
system.tol2bus.snoop_fanout::10                 20943      0.35%     97.89% # Request fanout histogram
system.tol2bus.snoop_fanout::11                 21615      0.36%     98.25% # Request fanout histogram
system.tol2bus.snoop_fanout::12                 20649      0.34%     98.59% # Request fanout histogram
system.tol2bus.snoop_fanout::13                 21278      0.35%     98.94% # Request fanout histogram
system.tol2bus.snoop_fanout::14                 24447      0.40%     99.34% # Request fanout histogram
system.tol2bus.snoop_fanout::15                 36042      0.60%     99.94% # Request fanout histogram
system.tol2bus.snoop_fanout::16                  3687      0.06%    100.00% # Request fanout histogram
system.tol2bus.snoop_fanout::17                     0      0.00%    100.00% # Request fanout histogram
system.tol2bus.snoop_fanout::18                     0      0.00%    100.00% # Request fanout histogram
system.tol2bus.snoop_fanout::19                     0      0.00%    100.00% # Request fanout histogram
system.tol2bus.snoop_fanout::20                     0      0.00%    100.00% # Request fanout histogram
system.tol2bus.snoop_fanout::21                     0      0.00%    100.00% # Request fanout histogram
system.tol2bus.snoop_fanout::22                     0      0.00%    100.00% # Request fanout histogram
system.tol2bus.snoop_fanout::23                     0      0.00%    100.00% # Request fanout histogram
system.tol2bus.snoop_fanout::24                     0      0.00%    100.00% # Request fanout histogram
system.tol2bus.snoop_fanout::25                     0      0.00%    100.00% # Request fanout histogram
system.tol2bus.snoop_fanout::26                     0      0.00%    100.00% # Request fanout histogram
system.tol2bus.snoop_fanout::27                     0      0.00%    100.00% # Request fanout histogram
system.tol2bus.snoop_fanout::28                     0      0.00%    100.00% # Request fanout histogram
system.tol2bus.snoop_fanout::29                     0      0.00%    100.00% # Request fanout histogram
system.tol2bus.snoop_fanout::30                     0      0.00%    100.00% # Request fanout histogram
system.tol2bus.snoop_fanout::31                     0      0.00%    100.00% # Request fanout histogram
system.tol2bus.snoop_fanout::32                     0      0.00%    100.00% # Request fanout histogram
system.tol2bus.snoop_fanout::overflows              0      0.00%    100.00% # Request fanout histogram
system.tol2bus.snoop_fanout::min_value              0                       # Request fanout histogram
system.tol2bus.snoop_fanout::max_value             16                       # Request fanout histogram
system.tol2bus.snoop_fanout::total            6048177                       # Request fanout histogram
system.tol2bus.reqLayer0.occupancy        20061964237                       # Layer occupancy (ticks)
system.tol2bus.reqLayer0.utilization             83.8                       # Layer utilization (%)
system.tol2bus.respLayer0.occupancy          44018162                       # Layer occupancy (ticks)
system.tol2bus.respLayer0.utilization             0.2                       # Layer utilization (%)
system.tol2bus.respLayer1.occupancy        1222558484                       # Layer occupancy (ticks)
system.tol2bus.respLayer1.utilization             5.1                       # Layer utilization (%)
system.tol2bus.respLayer2.occupancy          16388480                       # Layer occupancy (ticks)
system.tol2bus.respLayer2.utilization             0.1                       # Layer utilization (%)
system.tol2bus.respLayer3.occupancy        1109584445                       # Layer occupancy (ticks)
system.tol2bus.respLayer3.utilization             4.6                       # Layer utilization (%)
system.tol2bus.respLayer4.occupancy          14386699                       # Layer occupancy (ticks)
system.tol2bus.respLayer4.utilization             0.1                       # Layer utilization (%)
system.tol2bus.respLayer5.occupancy        1127486381                       # Layer occupancy (ticks)
system.tol2bus.respLayer5.utilization             4.7                       # Layer utilization (%)
system.tol2bus.respLayer6.occupancy          14431084                       # Layer occupancy (ticks)
system.tol2bus.respLayer6.utilization             0.1                       # Layer utilization (%)
system.tol2bus.respLayer7.occupancy        1118353404                       # Layer occupancy (ticks)
system.tol2bus.respLayer7.utilization             4.7                       # Layer utilization (%)
system.tol2bus.respLayer8.occupancy          16668772                       # Layer occupancy (ticks)
system.tol2bus.respLayer8.utilization             0.1                       # Layer utilization (%)
system.tol2bus.respLayer9.occupancy        1106320008                       # Layer occupancy (ticks)
system.tol2bus.respLayer9.utilization             4.6                       # Layer utilization (%)
system.tol2bus.respLayer10.occupancy         14843723                       # Layer occupancy (ticks)
system.tol2bus.respLayer10.utilization            0.1                       # Layer utilization (%)
system.tol2bus.respLayer11.occupancy       1122125399                       # Layer occupancy (ticks)
system.tol2bus.respLayer11.utilization            4.7                       # Layer utilization (%)
system.tol2bus.respLayer12.occupancy         13718805                       # Layer occupancy (ticks)
system.tol2bus.respLayer12.utilization            0.1                       # Layer utilization (%)
system.tol2bus.respLayer13.occupancy       1141237408                       # Layer occupancy (ticks)
system.tol2bus.respLayer13.utilization            4.8                       # Layer utilization (%)
system.tol2bus.respLayer14.occupancy         13696997                       # Layer occupancy (ticks)
system.tol2bus.respLayer14.utilization            0.1                       # Layer utilization (%)
system.tol2bus.respLayer15.occupancy       1132420298                       # Layer occupancy (ticks)
system.tol2bus.respLayer15.utilization            4.7                       # Layer utilization (%)
system.tol2bus.respLayer16.occupancy         15485011                       # Layer occupancy (ticks)
system.tol2bus.respLayer16.utilization            0.1                       # Layer utilization (%)
system.tol2bus.respLayer17.occupancy       1123149448                       # Layer occupancy (ticks)
system.tol2bus.respLayer17.utilization            4.7                       # Layer utilization (%)
system.tol2bus.respLayer18.occupancy         14948480                       # Layer occupancy (ticks)
system.tol2bus.respLayer18.utilization            0.1                       # Layer utilization (%)
system.tol2bus.respLayer19.occupancy       1114284361                       # Layer occupancy (ticks)
system.tol2bus.respLayer19.utilization            4.7                       # Layer utilization (%)
system.tol2bus.respLayer20.occupancy         13793595                       # Layer occupancy (ticks)
system.tol2bus.respLayer20.utilization            0.1                       # Layer utilization (%)
system.tol2bus.respLayer21.occupancy       1134489284                       # Layer occupancy (ticks)
system.tol2bus.respLayer21.utilization            4.7                       # Layer utilization (%)
system.tol2bus.respLayer22.occupancy         13587646                       # Layer occupancy (ticks)
system.tol2bus.respLayer22.utilization            0.1                       # Layer utilization (%)
system.tol2bus.respLayer23.occupancy       1134437414                       # Layer occupancy (ticks)
system.tol2bus.respLayer23.utilization            4.7                       # Layer utilization (%)
system.tol2bus.respLayer24.occupancy         15489873                       # Layer occupancy (ticks)
system.tol2bus.respLayer24.utilization            0.1                       # Layer utilization (%)
system.tol2bus.respLayer25.occupancy       1124024757                       # Layer occupancy (ticks)
system.tol2bus.respLayer25.utilization            4.7                       # Layer utilization (%)
system.tol2bus.respLayer26.occupancy         15981683                       # Layer occupancy (ticks)
system.tol2bus.respLayer26.utilization            0.1                       # Layer utilization (%)
system.tol2bus.respLayer27.occupancy       1104232193                       # Layer occupancy (ticks)
system.tol2bus.respLayer27.utilization            4.6                       # Layer utilization (%)
system.tol2bus.respLayer28.occupancy         14788081                       # Layer occupancy (ticks)
system.tol2bus.respLayer28.utilization            0.1                       # Layer utilization (%)
system.tol2bus.respLayer29.occupancy       1133832776                       # Layer occupancy (ticks)
system.tol2bus.respLayer29.utilization            4.7                       # Layer utilization (%)
system.tol2bus.respLayer30.occupancy         16786924                       # Layer occupancy (ticks)
system.tol2bus.respLayer30.utilization            0.1                       # Layer utilization (%)
system.tol2bus.respLayer31.occupancy       1108308277                       # Layer occupancy (ticks)
system.tol2bus.respLayer31.utilization            4.6                       # Layer utilization (%)

---------- End Simulation Statistics   ----------
