
---------- Begin Simulation Statistics ----------
sim_seconds                                  0.001293                       # Number of seconds simulated
sim_ticks                                  1293285900                       # Number of ticks simulated
final_tick                                 1293285900                       # Number of ticks from beginning of simulation (restored from checkpoints and never reset)
sim_freq                                 1000000000000                       # Frequency of simulated ticks
host_inst_rate                                 229934                       # Simulator instruction rate (inst/s)
host_op_rate                                   229934                       # Simulator op (including micro ops) rate (op/s)
host_tick_rate                              141885556                       # Simulator tick rate (ticks/s)
host_mem_usage                                 694964                       # Number of bytes of host memory used
host_seconds                                     9.12                       # Real time elapsed on the host
sim_insts                                     2095839                       # Number of instructions simulated
sim_ops                                       2095839                       # Number of ops (including micro ops) simulated
system.voltage_domain.voltage                       1                       # Voltage in Volts
system.clk_domain.clock                          1000                       # Clock period in ticks
system.mem_ctrls.bytes_read::cpu00.inst        122944                       # Number of bytes read from this memory
system.mem_ctrls.bytes_read::cpu00.data        378368                       # Number of bytes read from this memory
system.mem_ctrls.bytes_read::cpu01.inst         11648                       # Number of bytes read from this memory
system.mem_ctrls.bytes_read::cpu01.data          6656                       # Number of bytes read from this memory
system.mem_ctrls.bytes_read::cpu02.inst           960                       # Number of bytes read from this memory
system.mem_ctrls.bytes_read::cpu02.data          4544                       # Number of bytes read from this memory
system.mem_ctrls.bytes_read::cpu03.inst           704                       # Number of bytes read from this memory
system.mem_ctrls.bytes_read::cpu03.data          6592                       # Number of bytes read from this memory
system.mem_ctrls.bytes_read::cpu04.inst           512                       # Number of bytes read from this memory
system.mem_ctrls.bytes_read::cpu04.data          5824                       # Number of bytes read from this memory
system.mem_ctrls.bytes_read::cpu05.inst           192                       # Number of bytes read from this memory
system.mem_ctrls.bytes_read::cpu05.data          4928                       # Number of bytes read from this memory
system.mem_ctrls.bytes_read::cpu06.inst           640                       # Number of bytes read from this memory
system.mem_ctrls.bytes_read::cpu06.data          5568                       # Number of bytes read from this memory
system.mem_ctrls.bytes_read::cpu07.inst          1664                       # Number of bytes read from this memory
system.mem_ctrls.bytes_read::cpu07.data          5760                       # Number of bytes read from this memory
system.mem_ctrls.bytes_read::cpu08.inst          2880                       # Number of bytes read from this memory
system.mem_ctrls.bytes_read::cpu08.data          5504                       # Number of bytes read from this memory
system.mem_ctrls.bytes_read::cpu09.inst          1472                       # Number of bytes read from this memory
system.mem_ctrls.bytes_read::cpu09.data          5568                       # Number of bytes read from this memory
system.mem_ctrls.bytes_read::cpu10.inst          1792                       # Number of bytes read from this memory
system.mem_ctrls.bytes_read::cpu10.data          5568                       # Number of bytes read from this memory
system.mem_ctrls.bytes_read::cpu11.inst           576                       # Number of bytes read from this memory
system.mem_ctrls.bytes_read::cpu11.data          6016                       # Number of bytes read from this memory
system.mem_ctrls.bytes_read::cpu12.inst          3200                       # Number of bytes read from this memory
system.mem_ctrls.bytes_read::cpu12.data          5888                       # Number of bytes read from this memory
system.mem_ctrls.bytes_read::cpu13.inst          1600                       # Number of bytes read from this memory
system.mem_ctrls.bytes_read::cpu13.data          6400                       # Number of bytes read from this memory
system.mem_ctrls.bytes_read::cpu14.inst           640                       # Number of bytes read from this memory
system.mem_ctrls.bytes_read::cpu14.data          5568                       # Number of bytes read from this memory
system.mem_ctrls.bytes_read::cpu15.inst          1152                       # Number of bytes read from this memory
system.mem_ctrls.bytes_read::cpu15.data          5568                       # Number of bytes read from this memory
system.mem_ctrls.bytes_read::total             616896                       # Number of bytes read from this memory
system.mem_ctrls.bytes_inst_read::cpu00.inst       122944                       # Number of instructions bytes read from this memory
system.mem_ctrls.bytes_inst_read::cpu01.inst        11648                       # Number of instructions bytes read from this memory
system.mem_ctrls.bytes_inst_read::cpu02.inst          960                       # Number of instructions bytes read from this memory
system.mem_ctrls.bytes_inst_read::cpu03.inst          704                       # Number of instructions bytes read from this memory
system.mem_ctrls.bytes_inst_read::cpu04.inst          512                       # Number of instructions bytes read from this memory
system.mem_ctrls.bytes_inst_read::cpu05.inst          192                       # Number of instructions bytes read from this memory
system.mem_ctrls.bytes_inst_read::cpu06.inst          640                       # Number of instructions bytes read from this memory
system.mem_ctrls.bytes_inst_read::cpu07.inst         1664                       # Number of instructions bytes read from this memory
system.mem_ctrls.bytes_inst_read::cpu08.inst         2880                       # Number of instructions bytes read from this memory
system.mem_ctrls.bytes_inst_read::cpu09.inst         1472                       # Number of instructions bytes read from this memory
system.mem_ctrls.bytes_inst_read::cpu10.inst         1792                       # Number of instructions bytes read from this memory
system.mem_ctrls.bytes_inst_read::cpu11.inst          576                       # Number of instructions bytes read from this memory
system.mem_ctrls.bytes_inst_read::cpu12.inst         3200                       # Number of instructions bytes read from this memory
system.mem_ctrls.bytes_inst_read::cpu13.inst         1600                       # Number of instructions bytes read from this memory
system.mem_ctrls.bytes_inst_read::cpu14.inst          640                       # Number of instructions bytes read from this memory
system.mem_ctrls.bytes_inst_read::cpu15.inst         1152                       # Number of instructions bytes read from this memory
system.mem_ctrls.bytes_inst_read::total        152576                       # Number of instructions bytes read from this memory
system.mem_ctrls.bytes_written::writebacks        71168                       # Number of bytes written to this memory
system.mem_ctrls.bytes_written::total           71168                       # Number of bytes written to this memory
system.mem_ctrls.num_reads::cpu00.inst           1921                       # Number of read requests responded to by this memory
system.mem_ctrls.num_reads::cpu00.data           5912                       # Number of read requests responded to by this memory
system.mem_ctrls.num_reads::cpu01.inst            182                       # Number of read requests responded to by this memory
system.mem_ctrls.num_reads::cpu01.data            104                       # Number of read requests responded to by this memory
system.mem_ctrls.num_reads::cpu02.inst             15                       # Number of read requests responded to by this memory
system.mem_ctrls.num_reads::cpu02.data             71                       # Number of read requests responded to by this memory
system.mem_ctrls.num_reads::cpu03.inst             11                       # Number of read requests responded to by this memory
system.mem_ctrls.num_reads::cpu03.data            103                       # Number of read requests responded to by this memory
system.mem_ctrls.num_reads::cpu04.inst              8                       # Number of read requests responded to by this memory
system.mem_ctrls.num_reads::cpu04.data             91                       # Number of read requests responded to by this memory
system.mem_ctrls.num_reads::cpu05.inst              3                       # Number of read requests responded to by this memory
system.mem_ctrls.num_reads::cpu05.data             77                       # Number of read requests responded to by this memory
system.mem_ctrls.num_reads::cpu06.inst             10                       # Number of read requests responded to by this memory
system.mem_ctrls.num_reads::cpu06.data             87                       # Number of read requests responded to by this memory
system.mem_ctrls.num_reads::cpu07.inst             26                       # Number of read requests responded to by this memory
system.mem_ctrls.num_reads::cpu07.data             90                       # Number of read requests responded to by this memory
system.mem_ctrls.num_reads::cpu08.inst             45                       # Number of read requests responded to by this memory
system.mem_ctrls.num_reads::cpu08.data             86                       # Number of read requests responded to by this memory
system.mem_ctrls.num_reads::cpu09.inst             23                       # Number of read requests responded to by this memory
system.mem_ctrls.num_reads::cpu09.data             87                       # Number of read requests responded to by this memory
system.mem_ctrls.num_reads::cpu10.inst             28                       # Number of read requests responded to by this memory
system.mem_ctrls.num_reads::cpu10.data             87                       # Number of read requests responded to by this memory
system.mem_ctrls.num_reads::cpu11.inst              9                       # Number of read requests responded to by this memory
system.mem_ctrls.num_reads::cpu11.data             94                       # Number of read requests responded to by this memory
system.mem_ctrls.num_reads::cpu12.inst             50                       # Number of read requests responded to by this memory
system.mem_ctrls.num_reads::cpu12.data             92                       # Number of read requests responded to by this memory
system.mem_ctrls.num_reads::cpu13.inst             25                       # Number of read requests responded to by this memory
system.mem_ctrls.num_reads::cpu13.data            100                       # Number of read requests responded to by this memory
system.mem_ctrls.num_reads::cpu14.inst             10                       # Number of read requests responded to by this memory
system.mem_ctrls.num_reads::cpu14.data             87                       # Number of read requests responded to by this memory
system.mem_ctrls.num_reads::cpu15.inst             18                       # Number of read requests responded to by this memory
system.mem_ctrls.num_reads::cpu15.data             87                       # Number of read requests responded to by this memory
system.mem_ctrls.num_reads::total                9639                       # Number of read requests responded to by this memory
system.mem_ctrls.num_writes::writebacks          1112                       # Number of write requests responded to by this memory
system.mem_ctrls.num_writes::total               1112                       # Number of write requests responded to by this memory
system.mem_ctrls.bw_read::cpu00.inst         95063280                       # Total read bandwidth from this memory (bytes/s)
system.mem_ctrls.bw_read::cpu00.data        292563307                       # Total read bandwidth from this memory (bytes/s)
system.mem_ctrls.bw_read::cpu01.inst          9006516                       # Total read bandwidth from this memory (bytes/s)
system.mem_ctrls.bw_read::cpu01.data          5146581                       # Total read bandwidth from this memory (bytes/s)
system.mem_ctrls.bw_read::cpu02.inst           742295                       # Total read bandwidth from this memory (bytes/s)
system.mem_ctrls.bw_read::cpu02.data          3513531                       # Total read bandwidth from this memory (bytes/s)
system.mem_ctrls.bw_read::cpu03.inst           544350                       # Total read bandwidth from this memory (bytes/s)
system.mem_ctrls.bw_read::cpu03.data          5097094                       # Total read bandwidth from this memory (bytes/s)
system.mem_ctrls.bw_read::cpu04.inst           395891                       # Total read bandwidth from this memory (bytes/s)
system.mem_ctrls.bw_read::cpu04.data          4503258                       # Total read bandwidth from this memory (bytes/s)
system.mem_ctrls.bw_read::cpu05.inst           148459                       # Total read bandwidth from this memory (bytes/s)
system.mem_ctrls.bw_read::cpu05.data          3810449                       # Total read bandwidth from this memory (bytes/s)
system.mem_ctrls.bw_read::cpu06.inst           494864                       # Total read bandwidth from this memory (bytes/s)
system.mem_ctrls.bw_read::cpu06.data          4305313                       # Total read bandwidth from this memory (bytes/s)
system.mem_ctrls.bw_read::cpu07.inst          1286645                       # Total read bandwidth from this memory (bytes/s)
system.mem_ctrls.bw_read::cpu07.data          4453772                       # Total read bandwidth from this memory (bytes/s)
system.mem_ctrls.bw_read::cpu08.inst          2226886                       # Total read bandwidth from this memory (bytes/s)
system.mem_ctrls.bw_read::cpu08.data          4255826                       # Total read bandwidth from this memory (bytes/s)
system.mem_ctrls.bw_read::cpu09.inst          1138186                       # Total read bandwidth from this memory (bytes/s)
system.mem_ctrls.bw_read::cpu09.data          4305313                       # Total read bandwidth from this memory (bytes/s)
system.mem_ctrls.bw_read::cpu10.inst          1385618                       # Total read bandwidth from this memory (bytes/s)
system.mem_ctrls.bw_read::cpu10.data          4305313                       # Total read bandwidth from this memory (bytes/s)
system.mem_ctrls.bw_read::cpu11.inst           445377                       # Total read bandwidth from this memory (bytes/s)
system.mem_ctrls.bw_read::cpu11.data          4651717                       # Total read bandwidth from this memory (bytes/s)
system.mem_ctrls.bw_read::cpu12.inst          2474318                       # Total read bandwidth from this memory (bytes/s)
system.mem_ctrls.bw_read::cpu12.data          4552744                       # Total read bandwidth from this memory (bytes/s)
system.mem_ctrls.bw_read::cpu13.inst          1237159                       # Total read bandwidth from this memory (bytes/s)
system.mem_ctrls.bw_read::cpu13.data          4948635                       # Total read bandwidth from this memory (bytes/s)
system.mem_ctrls.bw_read::cpu14.inst           494864                       # Total read bandwidth from this memory (bytes/s)
system.mem_ctrls.bw_read::cpu14.data          4305313                       # Total read bandwidth from this memory (bytes/s)
system.mem_ctrls.bw_read::cpu15.inst           890754                       # Total read bandwidth from this memory (bytes/s)
system.mem_ctrls.bw_read::cpu15.data          4305313                       # Total read bandwidth from this memory (bytes/s)
system.mem_ctrls.bw_read::total             476998937                       # Total read bandwidth from this memory (bytes/s)
system.mem_ctrls.bw_inst_read::cpu00.inst     95063280                       # Instruction read bandwidth from this memory (bytes/s)
system.mem_ctrls.bw_inst_read::cpu01.inst      9006516                       # Instruction read bandwidth from this memory (bytes/s)
system.mem_ctrls.bw_inst_read::cpu02.inst       742295                       # Instruction read bandwidth from this memory (bytes/s)
system.mem_ctrls.bw_inst_read::cpu03.inst       544350                       # Instruction read bandwidth from this memory (bytes/s)
system.mem_ctrls.bw_inst_read::cpu04.inst       395891                       # Instruction read bandwidth from this memory (bytes/s)
system.mem_ctrls.bw_inst_read::cpu05.inst       148459                       # Instruction read bandwidth from this memory (bytes/s)
system.mem_ctrls.bw_inst_read::cpu06.inst       494864                       # Instruction read bandwidth from this memory (bytes/s)
system.mem_ctrls.bw_inst_read::cpu07.inst      1286645                       # Instruction read bandwidth from this memory (bytes/s)
system.mem_ctrls.bw_inst_read::cpu08.inst      2226886                       # Instruction read bandwidth from this memory (bytes/s)
system.mem_ctrls.bw_inst_read::cpu09.inst      1138186                       # Instruction read bandwidth from this memory (bytes/s)
system.mem_ctrls.bw_inst_read::cpu10.inst      1385618                       # Instruction read bandwidth from this memory (bytes/s)
system.mem_ctrls.bw_inst_read::cpu11.inst       445377                       # Instruction read bandwidth from this memory (bytes/s)
system.mem_ctrls.bw_inst_read::cpu12.inst      2474318                       # Instruction read bandwidth from this memory (bytes/s)
system.mem_ctrls.bw_inst_read::cpu13.inst      1237159                       # Instruction read bandwidth from this memory (bytes/s)
system.mem_ctrls.bw_inst_read::cpu14.inst       494864                       # Instruction read bandwidth from this memory (bytes/s)
system.mem_ctrls.bw_inst_read::cpu15.inst       890754                       # Instruction read bandwidth from this memory (bytes/s)
system.mem_ctrls.bw_inst_read::total        117975461                       # Instruction read bandwidth from this memory (bytes/s)
system.mem_ctrls.bw_write::writebacks        55028822                       # Write bandwidth from this memory (bytes/s)
system.mem_ctrls.bw_write::total             55028822                       # Write bandwidth from this memory (bytes/s)
system.mem_ctrls.bw_total::writebacks        55028822                       # Total bandwidth to/from this memory (bytes/s)
system.mem_ctrls.bw_total::cpu00.inst        95063280                       # Total bandwidth to/from this memory (bytes/s)
system.mem_ctrls.bw_total::cpu00.data       292563307                       # Total bandwidth to/from this memory (bytes/s)
system.mem_ctrls.bw_total::cpu01.inst         9006516                       # Total bandwidth to/from this memory (bytes/s)
system.mem_ctrls.bw_total::cpu01.data         5146581                       # Total bandwidth to/from this memory (bytes/s)
system.mem_ctrls.bw_total::cpu02.inst          742295                       # Total bandwidth to/from this memory (bytes/s)
system.mem_ctrls.bw_total::cpu02.data         3513531                       # Total bandwidth to/from this memory (bytes/s)
system.mem_ctrls.bw_total::cpu03.inst          544350                       # Total bandwidth to/from this memory (bytes/s)
system.mem_ctrls.bw_total::cpu03.data         5097094                       # Total bandwidth to/from this memory (bytes/s)
system.mem_ctrls.bw_total::cpu04.inst          395891                       # Total bandwidth to/from this memory (bytes/s)
system.mem_ctrls.bw_total::cpu04.data         4503258                       # Total bandwidth to/from this memory (bytes/s)
system.mem_ctrls.bw_total::cpu05.inst          148459                       # Total bandwidth to/from this memory (bytes/s)
system.mem_ctrls.bw_total::cpu05.data         3810449                       # Total bandwidth to/from this memory (bytes/s)
system.mem_ctrls.bw_total::cpu06.inst          494864                       # Total bandwidth to/from this memory (bytes/s)
system.mem_ctrls.bw_total::cpu06.data         4305313                       # Total bandwidth to/from this memory (bytes/s)
system.mem_ctrls.bw_total::cpu07.inst         1286645                       # Total bandwidth to/from this memory (bytes/s)
system.mem_ctrls.bw_total::cpu07.data         4453772                       # Total bandwidth to/from this memory (bytes/s)
system.mem_ctrls.bw_total::cpu08.inst         2226886                       # Total bandwidth to/from this memory (bytes/s)
system.mem_ctrls.bw_total::cpu08.data         4255826                       # Total bandwidth to/from this memory (bytes/s)
system.mem_ctrls.bw_total::cpu09.inst         1138186                       # Total bandwidth to/from this memory (bytes/s)
system.mem_ctrls.bw_total::cpu09.data         4305313                       # Total bandwidth to/from this memory (bytes/s)
system.mem_ctrls.bw_total::cpu10.inst         1385618                       # Total bandwidth to/from this memory (bytes/s)
system.mem_ctrls.bw_total::cpu10.data         4305313                       # Total bandwidth to/from this memory (bytes/s)
system.mem_ctrls.bw_total::cpu11.inst          445377                       # Total bandwidth to/from this memory (bytes/s)
system.mem_ctrls.bw_total::cpu11.data         4651717                       # Total bandwidth to/from this memory (bytes/s)
system.mem_ctrls.bw_total::cpu12.inst         2474318                       # Total bandwidth to/from this memory (bytes/s)
system.mem_ctrls.bw_total::cpu12.data         4552744                       # Total bandwidth to/from this memory (bytes/s)
system.mem_ctrls.bw_total::cpu13.inst         1237159                       # Total bandwidth to/from this memory (bytes/s)
system.mem_ctrls.bw_total::cpu13.data         4948635                       # Total bandwidth to/from this memory (bytes/s)
system.mem_ctrls.bw_total::cpu14.inst          494864                       # Total bandwidth to/from this memory (bytes/s)
system.mem_ctrls.bw_total::cpu14.data         4305313                       # Total bandwidth to/from this memory (bytes/s)
system.mem_ctrls.bw_total::cpu15.inst          890754                       # Total bandwidth to/from this memory (bytes/s)
system.mem_ctrls.bw_total::cpu15.data         4305313                       # Total bandwidth to/from this memory (bytes/s)
system.mem_ctrls.bw_total::total            532027760                       # Total bandwidth to/from this memory (bytes/s)
system.cpu00.branchPred.lookups                132319                       # Number of BP lookups
system.cpu00.branchPred.condPredicted           73738                       # Number of conditional branches predicted
system.cpu00.branchPred.condIncorrect            5646                       # Number of conditional branches incorrect
system.cpu00.branchPred.BTBLookups              86668                       # Number of BTB lookups
system.cpu00.branchPred.BTBHits                 66268                       # Number of BTB hits
system.cpu00.branchPred.BTBCorrect                  0                       # Number of correct BTB predictions (this stat may not work properly.
system.cpu00.branchPred.BTBHitPct           76.461901                       # BTB Hit Percentage
system.cpu00.branchPred.usedRAS                 26414                       # Number of times the RAS was used to get a target.
system.cpu00.branchPred.RASInCorrect               85                       # Number of incorrect RAS predictions.
system.cpu00.branchPred.indirectLookups          3642                       # Number of indirect predictor lookups.
system.cpu00.branchPred.indirectHits             2885                       # Number of indirect target hits.
system.cpu00.branchPred.indirectMisses            757                       # Number of indirect misses.
system.cpu00.branchPredindirectMispredicted          251                       # Number of mispredicted indirect branches.
system.cpu_voltage_domain.voltage                   1                       # Voltage in Volts
system.cpu_clk_domain.clock                      1180                       # Clock period in ticks
system.cpu00.dtb.fetch_hits                         0                       # ITB hits
system.cpu00.dtb.fetch_misses                       0                       # ITB misses
system.cpu00.dtb.fetch_acv                          0                       # ITB acv
system.cpu00.dtb.fetch_accesses                     0                       # ITB accesses
system.cpu00.dtb.read_hits                     180215                       # DTB read hits
system.cpu00.dtb.read_misses                      628                       # DTB read misses
system.cpu00.dtb.read_acv                           0                       # DTB read access violations
system.cpu00.dtb.read_accesses                 180843                       # DTB read accesses
system.cpu00.dtb.write_hits                    127993                       # DTB write hits
system.cpu00.dtb.write_misses                    1120                       # DTB write misses
system.cpu00.dtb.write_acv                          0                       # DTB write access violations
system.cpu00.dtb.write_accesses                129113                       # DTB write accesses
system.cpu00.dtb.data_hits                     308208                       # DTB hits
system.cpu00.dtb.data_misses                     1748                       # DTB misses
system.cpu00.dtb.data_acv                           0                       # DTB access violations
system.cpu00.dtb.data_accesses                 309956                       # DTB accesses
system.cpu00.itb.fetch_hits                    148951                       # ITB hits
system.cpu00.itb.fetch_misses                     155                       # ITB misses
system.cpu00.itb.fetch_acv                          0                       # ITB acv
system.cpu00.itb.fetch_accesses                149106                       # ITB accesses
system.cpu00.itb.read_hits                          0                       # DTB read hits
system.cpu00.itb.read_misses                        0                       # DTB read misses
system.cpu00.itb.read_acv                           0                       # DTB read access violations
system.cpu00.itb.read_accesses                      0                       # DTB read accesses
system.cpu00.itb.write_hits                         0                       # DTB write hits
system.cpu00.itb.write_misses                       0                       # DTB write misses
system.cpu00.itb.write_acv                          0                       # DTB write access violations
system.cpu00.itb.write_accesses                     0                       # DTB write accesses
system.cpu00.itb.data_hits                          0                       # DTB hits
system.cpu00.itb.data_misses                        0                       # DTB misses
system.cpu00.itb.data_acv                           0                       # DTB access violations
system.cpu00.itb.data_accesses                      0                       # DTB accesses
system.cpu00.workload.num_syscalls               1834                       # Number of system calls
system.cpu00.numCycles                        1025076                       # number of cpu cycles simulated
system.cpu00.numWorkItemsStarted                    0                       # number of work items this cpu started
system.cpu00.numWorkItemsCompleted                  0                       # number of work items this cpu completed
system.cpu00.fetch.icacheStallCycles            87194                       # Number of cycles fetch is stalled on an Icache miss
system.cpu00.fetch.Insts                      1188197                       # Number of instructions fetch has processed
system.cpu00.fetch.Branches                    132319                       # Number of branches that fetch encountered
system.cpu00.fetch.predictedBranches            95567                       # Number of branches that fetch has predicted taken
system.cpu00.fetch.Cycles                      718452                       # Number of cycles fetch has run and was not squashing or blocked
system.cpu00.fetch.SquashCycles                 12660                       # Number of cycles fetch has spent squashing
system.cpu00.fetch.MiscStallCycles                393                       # Number of cycles fetch has spent waiting on interrupts, or bad addresses, or out of MSHRs
system.cpu00.fetch.PendingTrapStallCycles         6300                       # Number of stall cycles due to pending traps
system.cpu00.fetch.IcacheWaitRetryStallCycles          600                       # Number of stall cycles due to full MSHR
system.cpu00.fetch.CacheLines                  148951                       # Number of cache lines fetched
system.cpu00.fetch.IcacheSquashes                2666                       # Number of outstanding Icache misses that were squashed
system.cpu00.fetch.rateDist::samples           819269                       # Number of instructions fetched each cycle (Total)
system.cpu00.fetch.rateDist::mean            1.450314                       # Number of instructions fetched each cycle (Total)
system.cpu00.fetch.rateDist::stdev           2.719988                       # Number of instructions fetched each cycle (Total)
system.cpu00.fetch.rateDist::underflows             0      0.00%      0.00% # Number of instructions fetched each cycle (Total)
system.cpu00.fetch.rateDist::0                 601971     73.48%     73.48% # Number of instructions fetched each cycle (Total)
system.cpu00.fetch.rateDist::1                  16340      1.99%     75.47% # Number of instructions fetched each cycle (Total)
system.cpu00.fetch.rateDist::2                  17348      2.12%     77.59% # Number of instructions fetched each cycle (Total)
system.cpu00.fetch.rateDist::3                  16836      2.06%     79.64% # Number of instructions fetched each cycle (Total)
system.cpu00.fetch.rateDist::4                  37913      4.63%     84.27% # Number of instructions fetched each cycle (Total)
system.cpu00.fetch.rateDist::5                  15726      1.92%     86.19% # Number of instructions fetched each cycle (Total)
system.cpu00.fetch.rateDist::6                  18728      2.29%     88.48% # Number of instructions fetched each cycle (Total)
system.cpu00.fetch.rateDist::7                  11253      1.37%     89.85% # Number of instructions fetched each cycle (Total)
system.cpu00.fetch.rateDist::8                  83154     10.15%    100.00% # Number of instructions fetched each cycle (Total)
system.cpu00.fetch.rateDist::overflows              0      0.00%    100.00% # Number of instructions fetched each cycle (Total)
system.cpu00.fetch.rateDist::min_value              0                       # Number of instructions fetched each cycle (Total)
system.cpu00.fetch.rateDist::max_value              8                       # Number of instructions fetched each cycle (Total)
system.cpu00.fetch.rateDist::total             819269                       # Number of instructions fetched each cycle (Total)
system.cpu00.fetch.branchRate                0.129082                       # Number of branch fetches per cycle
system.cpu00.fetch.rate                      1.159131                       # Number of inst fetches per cycle
system.cpu00.decode.IdleCycles                  93068                       # Number of cycles decode is idle
system.cpu00.decode.BlockedCycles              558705                       # Number of cycles decode is blocked
system.cpu00.decode.RunCycles                  129900                       # Number of cycles decode is running
system.cpu00.decode.UnblockCycles               32992                       # Number of cycles decode is unblocking
system.cpu00.decode.SquashCycles                 4604                       # Number of cycles decode is squashing
system.cpu00.decode.BranchResolved              26431                       # Number of times decode resolved a branch
system.cpu00.decode.BranchMispred                1758                       # Number of times decode detected a branch misprediction
system.cpu00.decode.DecodedInsts              1124286                       # Number of instructions handled by decode
system.cpu00.decode.SquashedInsts                7306                       # Number of squashed instructions handled by decode
system.cpu00.rename.SquashCycles                 4604                       # Number of cycles rename is squashing
system.cpu00.rename.IdleCycles                 108836                       # Number of cycles rename is idle
system.cpu00.rename.BlockCycles                 89885                       # Number of cycles rename is blocking
system.cpu00.rename.serializeStallCycles       219356                       # count of cycles rename stalled for serializing inst
system.cpu00.rename.RunCycles                  147289                       # Number of cycles rename is running
system.cpu00.rename.UnblockCycles              249299                       # Number of cycles rename is unblocking
system.cpu00.rename.RenamedInsts              1105182                       # Number of instructions processed by rename
system.cpu00.rename.ROBFullEvents                2731                       # Number of times rename has blocked due to ROB full
system.cpu00.rename.IQFullEvents                22260                       # Number of times rename has blocked due to IQ full
system.cpu00.rename.LQFullEvents                 2660                       # Number of times rename has blocked due to LQ full
system.cpu00.rename.SQFullEvents               214055                       # Number of times rename has blocked due to SQ full
system.cpu00.rename.RenamedOperands            757597                       # Number of destination operands rename has renamed
system.cpu00.rename.RenameLookups             1368617                       # Number of register rename lookups that rename has made
system.cpu00.rename.int_rename_lookups        1210501                       # Number of integer rename lookups
system.cpu00.rename.fp_rename_lookups          155829                       # Number of floating rename lookups
system.cpu00.rename.CommittedMaps              668956                       # Number of HB maps that are committed
system.cpu00.rename.UndoneMaps                  88641                       # Number of HB maps that are undone due to squashing
system.cpu00.rename.serializingInsts             4024                       # count of serializing insts renamed
system.cpu00.rename.tempSerializingInsts         1660                       # count of temporary serializing insts renamed
system.cpu00.rename.skidInsts                  147798                       # count of insts added to the skid buffer
system.cpu00.memDep0.insertedLoads             179337                       # Number of loads inserted to the mem dependence unit.
system.cpu00.memDep0.insertedStores            135359                       # Number of stores inserted to the mem dependence unit.
system.cpu00.memDep0.conflictingLoads           32055                       # Number of conflicting loads.
system.cpu00.memDep0.conflictingStores          12277                       # Number of conflicting stores.
system.cpu00.iq.iqInstsAdded                   968605                       # Number of instructions added to the IQ (excludes non-spec)
system.cpu00.iq.iqNonSpecInstsAdded              2741                       # Number of non-speculative instructions added to the IQ
system.cpu00.iq.iqInstsIssued                  951930                       # Number of instructions issued
system.cpu00.iq.iqSquashedInstsIssued            1571                       # Number of squashed instructions issued
system.cpu00.iq.iqSquashedInstsExamined        101286                       # Number of squashed instructions iterated over during squash; mainly for profiling
system.cpu00.iq.iqSquashedOperandsExamined        50189                       # Number of squashed operands that are examined and possibly removed from graph
system.cpu00.iq.iqSquashedNonSpecRemoved          365                       # Number of squashed non-spec instructions that were removed
system.cpu00.iq.issued_per_cycle::samples       819269                       # Number of insts issued each cycle
system.cpu00.iq.issued_per_cycle::mean       1.161926                       # Number of insts issued each cycle
system.cpu00.iq.issued_per_cycle::stdev      1.933739                       # Number of insts issued each cycle
system.cpu00.iq.issued_per_cycle::underflows            0      0.00%      0.00% # Number of insts issued each cycle
system.cpu00.iq.issued_per_cycle::0            521640     63.67%     63.67% # Number of insts issued each cycle
system.cpu00.iq.issued_per_cycle::1             73594      8.98%     72.65% # Number of insts issued each cycle
system.cpu00.iq.issued_per_cycle::2             60619      7.40%     80.05% # Number of insts issued each cycle
system.cpu00.iq.issued_per_cycle::3             45172      5.51%     85.57% # Number of insts issued each cycle
system.cpu00.iq.issued_per_cycle::4             43311      5.29%     90.85% # Number of insts issued each cycle
system.cpu00.iq.issued_per_cycle::5             28569      3.49%     94.34% # Number of insts issued each cycle
system.cpu00.iq.issued_per_cycle::6             26885      3.28%     97.62% # Number of insts issued each cycle
system.cpu00.iq.issued_per_cycle::7             11649      1.42%     99.04% # Number of insts issued each cycle
system.cpu00.iq.issued_per_cycle::8              7830      0.96%    100.00% # Number of insts issued each cycle
system.cpu00.iq.issued_per_cycle::overflows            0      0.00%    100.00% # Number of insts issued each cycle
system.cpu00.iq.issued_per_cycle::min_value            0                       # Number of insts issued each cycle
system.cpu00.iq.issued_per_cycle::max_value            8                       # Number of insts issued each cycle
system.cpu00.iq.issued_per_cycle::total        819269                       # Number of insts issued each cycle
system.cpu00.iq.fu_full::No_OpClass                 0      0.00%      0.00% # attempts to use FU when none available
system.cpu00.iq.fu_full::IntAlu                  4940     16.12%     16.12% # attempts to use FU when none available
system.cpu00.iq.fu_full::IntMult                 4097     13.37%     29.49% # attempts to use FU when none available
system.cpu00.iq.fu_full::IntDiv                     0      0.00%     29.49% # attempts to use FU when none available
system.cpu00.iq.fu_full::FloatAdd                  62      0.20%     29.69% # attempts to use FU when none available
system.cpu00.iq.fu_full::FloatCmp                   0      0.00%     29.69% # attempts to use FU when none available
system.cpu00.iq.fu_full::FloatCvt                   0      0.00%     29.69% # attempts to use FU when none available
system.cpu00.iq.fu_full::FloatMult               5911     19.29%     48.97% # attempts to use FU when none available
system.cpu00.iq.fu_full::FloatDiv                   0      0.00%     48.97% # attempts to use FU when none available
system.cpu00.iq.fu_full::FloatSqrt                  0      0.00%     48.97% # attempts to use FU when none available
system.cpu00.iq.fu_full::SimdAdd                    0      0.00%     48.97% # attempts to use FU when none available
system.cpu00.iq.fu_full::SimdAddAcc                 0      0.00%     48.97% # attempts to use FU when none available
system.cpu00.iq.fu_full::SimdAlu                    0      0.00%     48.97% # attempts to use FU when none available
system.cpu00.iq.fu_full::SimdCmp                    0      0.00%     48.97% # attempts to use FU when none available
system.cpu00.iq.fu_full::SimdCvt                    0      0.00%     48.97% # attempts to use FU when none available
system.cpu00.iq.fu_full::SimdMisc                   0      0.00%     48.97% # attempts to use FU when none available
system.cpu00.iq.fu_full::SimdMult                   0      0.00%     48.97% # attempts to use FU when none available
system.cpu00.iq.fu_full::SimdMultAcc                0      0.00%     48.97% # attempts to use FU when none available
system.cpu00.iq.fu_full::SimdShift                  0      0.00%     48.97% # attempts to use FU when none available
system.cpu00.iq.fu_full::SimdShiftAcc               0      0.00%     48.97% # attempts to use FU when none available
system.cpu00.iq.fu_full::SimdSqrt                   0      0.00%     48.97% # attempts to use FU when none available
system.cpu00.iq.fu_full::SimdFloatAdd               0      0.00%     48.97% # attempts to use FU when none available
system.cpu00.iq.fu_full::SimdFloatAlu               0      0.00%     48.97% # attempts to use FU when none available
system.cpu00.iq.fu_full::SimdFloatCmp               0      0.00%     48.97% # attempts to use FU when none available
system.cpu00.iq.fu_full::SimdFloatCvt               0      0.00%     48.97% # attempts to use FU when none available
system.cpu00.iq.fu_full::SimdFloatDiv               0      0.00%     48.97% # attempts to use FU when none available
system.cpu00.iq.fu_full::SimdFloatMisc              0      0.00%     48.97% # attempts to use FU when none available
system.cpu00.iq.fu_full::SimdFloatMult              0      0.00%     48.97% # attempts to use FU when none available
system.cpu00.iq.fu_full::SimdFloatMultAcc            0      0.00%     48.97% # attempts to use FU when none available
system.cpu00.iq.fu_full::SimdFloatSqrt              0      0.00%     48.97% # attempts to use FU when none available
system.cpu00.iq.fu_full::MemRead                 9494     30.98%     79.95% # attempts to use FU when none available
system.cpu00.iq.fu_full::MemWrite                6145     20.05%    100.00% # attempts to use FU when none available
system.cpu00.iq.fu_full::IprAccess                  0      0.00%    100.00% # attempts to use FU when none available
system.cpu00.iq.fu_full::InstPrefetch               0      0.00%    100.00% # attempts to use FU when none available
system.cpu00.iq.FU_type_0::No_OpClass               0      0.00%      0.00% # Type of FU issued
system.cpu00.iq.FU_type_0::IntAlu              551653     57.95%     57.95% # Type of FU issued
system.cpu00.iq.FU_type_0::IntMult              12789      1.34%     59.29% # Type of FU issued
system.cpu00.iq.FU_type_0::IntDiv                   0      0.00%     59.29% # Type of FU issued
system.cpu00.iq.FU_type_0::FloatAdd             35722      3.75%     63.05% # Type of FU issued
system.cpu00.iq.FU_type_0::FloatCmp                 8      0.00%     63.05% # Type of FU issued
system.cpu00.iq.FU_type_0::FloatCvt                 0      0.00%     63.05% # Type of FU issued
system.cpu00.iq.FU_type_0::FloatMult            37105      3.90%     66.95% # Type of FU issued
system.cpu00.iq.FU_type_0::FloatDiv                16      0.00%     66.95% # Type of FU issued
system.cpu00.iq.FU_type_0::FloatSqrt                0      0.00%     66.95% # Type of FU issued
system.cpu00.iq.FU_type_0::SimdAdd                  0      0.00%     66.95% # Type of FU issued
system.cpu00.iq.FU_type_0::SimdAddAcc               0      0.00%     66.95% # Type of FU issued
system.cpu00.iq.FU_type_0::SimdAlu                  0      0.00%     66.95% # Type of FU issued
system.cpu00.iq.FU_type_0::SimdCmp                  0      0.00%     66.95% # Type of FU issued
system.cpu00.iq.FU_type_0::SimdCvt                  0      0.00%     66.95% # Type of FU issued
system.cpu00.iq.FU_type_0::SimdMisc                 0      0.00%     66.95% # Type of FU issued
system.cpu00.iq.FU_type_0::SimdMult                 0      0.00%     66.95% # Type of FU issued
system.cpu00.iq.FU_type_0::SimdMultAcc              0      0.00%     66.95% # Type of FU issued
system.cpu00.iq.FU_type_0::SimdShift                0      0.00%     66.95% # Type of FU issued
system.cpu00.iq.FU_type_0::SimdShiftAcc             0      0.00%     66.95% # Type of FU issued
system.cpu00.iq.FU_type_0::SimdSqrt                 0      0.00%     66.95% # Type of FU issued
system.cpu00.iq.FU_type_0::SimdFloatAdd             0      0.00%     66.95% # Type of FU issued
system.cpu00.iq.FU_type_0::SimdFloatAlu             0      0.00%     66.95% # Type of FU issued
system.cpu00.iq.FU_type_0::SimdFloatCmp             0      0.00%     66.95% # Type of FU issued
system.cpu00.iq.FU_type_0::SimdFloatCvt             0      0.00%     66.95% # Type of FU issued
system.cpu00.iq.FU_type_0::SimdFloatDiv             0      0.00%     66.95% # Type of FU issued
system.cpu00.iq.FU_type_0::SimdFloatMisc            0      0.00%     66.95% # Type of FU issued
system.cpu00.iq.FU_type_0::SimdFloatMult            0      0.00%     66.95% # Type of FU issued
system.cpu00.iq.FU_type_0::SimdFloatMultAcc            0      0.00%     66.95% # Type of FU issued
system.cpu00.iq.FU_type_0::SimdFloatSqrt            0      0.00%     66.95% # Type of FU issued
system.cpu00.iq.FU_type_0::MemRead             184021     19.33%     86.28% # Type of FU issued
system.cpu00.iq.FU_type_0::MemWrite            130616     13.72%    100.00% # Type of FU issued
system.cpu00.iq.FU_type_0::IprAccess                0      0.00%    100.00% # Type of FU issued
system.cpu00.iq.FU_type_0::InstPrefetch             0      0.00%    100.00% # Type of FU issued
system.cpu00.iq.FU_type_0::total               951930                       # Type of FU issued
system.cpu00.iq.rate                         0.928643                       # Inst issue rate
system.cpu00.iq.fu_busy_cnt                     30649                       # FU busy when requested
system.cpu00.iq.fu_busy_rate                 0.032197                       # FU busy rate (busy events/executed inst)
system.cpu00.iq.int_inst_queue_reads          2512194                       # Number of integer instruction queue reads
system.cpu00.iq.int_inst_queue_writes          949747                       # Number of integer instruction queue writes
system.cpu00.iq.int_inst_queue_wakeup_accesses       814400                       # Number of integer instruction queue wakeup accesses
system.cpu00.iq.fp_inst_queue_reads            243155                       # Number of floating instruction queue reads
system.cpu00.iq.fp_inst_queue_writes           123302                       # Number of floating instruction queue writes
system.cpu00.iq.fp_inst_queue_wakeup_accesses       116955                       # Number of floating instruction queue wakeup accesses
system.cpu00.iq.int_alu_accesses               857680                       # Number of integer alu accesses
system.cpu00.iq.fp_alu_accesses                124899                       # Number of floating point alu accesses
system.cpu00.iew.lsq.thread0.forwLoads          21076                       # Number of loads that had data forwarded from stores
system.cpu00.iew.lsq.thread0.invAddrLoads            0                       # Number of loads ignored due to an invalid address
system.cpu00.iew.lsq.thread0.squashedLoads        18331                       # Number of loads squashed
system.cpu00.iew.lsq.thread0.ignoredResponses           67                       # Number of memory responses ignored because the instruction is squashed
system.cpu00.iew.lsq.thread0.memOrderViolation          427                       # Number of memory ordering violations
system.cpu00.iew.lsq.thread0.squashedStores        15832                       # Number of stores squashed
system.cpu00.iew.lsq.thread0.invAddrSwpfs            0                       # Number of software prefetches ignored due to an invalid address
system.cpu00.iew.lsq.thread0.blockedLoads            0                       # Number of blocked loads due to partial load-store forwarding
system.cpu00.iew.lsq.thread0.rescheduledLoads          208                       # Number of loads that were rescheduled
system.cpu00.iew.lsq.thread0.cacheBlocked         9111                       # Number of times an access to memory failed due to the cache being blocked
system.cpu00.iew.iewIdleCycles                      0                       # Number of cycles IEW is idle
system.cpu00.iew.iewSquashCycles                 4604                       # Number of cycles IEW is squashing
system.cpu00.iew.iewBlockCycles                 22117                       # Number of cycles IEW is blocking
system.cpu00.iew.iewUnblockCycles               60581                       # Number of cycles IEW is unblocking
system.cpu00.iew.iewDispatchedInsts           1078875                       # Number of instructions dispatched to IQ
system.cpu00.iew.iewDispSquashedInsts            1362                       # Number of squashed instructions skipped by dispatch
system.cpu00.iew.iewDispLoadInsts              179337                       # Number of dispatched load instructions
system.cpu00.iew.iewDispStoreInsts             135359                       # Number of dispatched store instructions
system.cpu00.iew.iewDispNonSpecInsts             1576                       # Number of dispatched non-speculative instructions
system.cpu00.iew.iewIQFullEvents                  105                       # Number of times the IQ has become full, causing a stall
system.cpu00.iew.iewLSQFullEvents               60372                       # Number of times the LSQ has become full, causing a stall
system.cpu00.iew.memOrderViolationEvents          427                       # Number of memory order violations
system.cpu00.iew.predictedTakenIncorrect         1576                       # Number of branches that were predicted taken incorrectly
system.cpu00.iew.predictedNotTakenIncorrect         3155                       # Number of branches that were predicted not taken incorrectly
system.cpu00.iew.branchMispredicts               4731                       # Number of branch mispredicts detected at execute
system.cpu00.iew.iewExecutedInsts              944466                       # Number of executed instructions
system.cpu00.iew.iewExecLoadInsts              180861                       # Number of load instructions executed
system.cpu00.iew.iewExecSquashedInsts            7464                       # Number of squashed instructions skipped in execute
system.cpu00.iew.exec_swp                           0                       # number of swp insts executed
system.cpu00.iew.exec_nop                      107529                       # number of nop insts executed
system.cpu00.iew.exec_refs                     309981                       # number of memory reference insts executed
system.cpu00.iew.exec_branches                 110489                       # Number of branches executed
system.cpu00.iew.exec_stores                   129120                       # Number of stores executed
system.cpu00.iew.exec_rate                   0.921362                       # Inst execution rate
system.cpu00.iew.wb_sent                       934999                       # cumulative count of insts sent to commit
system.cpu00.iew.wb_count                      931355                       # cumulative count of insts written-back
system.cpu00.iew.wb_producers                  545984                       # num instructions producing a value
system.cpu00.iew.wb_consumers                  777621                       # num instructions consuming a value
system.cpu00.iew.wb_rate                     0.908572                       # insts written-back per cycle
system.cpu00.iew.wb_fanout                   0.702121                       # average fanout of values written-back
system.cpu00.commit.commitSquashedInsts        105525                       # The number of squashed insts skipped by commit
system.cpu00.commit.commitNonSpecStalls          2376                       # The number of times commit has been forced to stall to communicate backwards
system.cpu00.commit.branchMispredicts            3920                       # The number of times a branch was mispredicted
system.cpu00.commit.committed_per_cycle::samples       802760                       # Number of insts commited each cycle
system.cpu00.commit.committed_per_cycle::mean     1.206737                       # Number of insts commited each cycle
system.cpu00.commit.committed_per_cycle::stdev     2.303380                       # Number of insts commited each cycle
system.cpu00.commit.committed_per_cycle::underflows            0      0.00%      0.00% # Number of insts commited each cycle
system.cpu00.commit.committed_per_cycle::0       554296     69.05%     69.05% # Number of insts commited each cycle
system.cpu00.commit.committed_per_cycle::1        51478      6.41%     75.46% # Number of insts commited each cycle
system.cpu00.commit.committed_per_cycle::2        51357      6.40%     81.86% # Number of insts commited each cycle
system.cpu00.commit.committed_per_cycle::3        30183      3.76%     85.62% # Number of insts commited each cycle
system.cpu00.commit.committed_per_cycle::4        35450      4.42%     90.03% # Number of insts commited each cycle
system.cpu00.commit.committed_per_cycle::5         8894      1.11%     91.14% # Number of insts commited each cycle
system.cpu00.commit.committed_per_cycle::6        13024      1.62%     92.77% # Number of insts commited each cycle
system.cpu00.commit.committed_per_cycle::7         5059      0.63%     93.40% # Number of insts commited each cycle
system.cpu00.commit.committed_per_cycle::8        53019      6.60%    100.00% # Number of insts commited each cycle
system.cpu00.commit.committed_per_cycle::overflows            0      0.00%    100.00% # Number of insts commited each cycle
system.cpu00.commit.committed_per_cycle::min_value            0                       # Number of insts commited each cycle
system.cpu00.commit.committed_per_cycle::max_value            8                       # Number of insts commited each cycle
system.cpu00.commit.committed_per_cycle::total       802760                       # Number of insts commited each cycle
system.cpu00.commit.committedInsts             968720                       # Number of instructions committed
system.cpu00.commit.committedOps               968720                       # Number of ops (including micro ops) committed
system.cpu00.commit.swp_count                       0                       # Number of s/w prefetches committed
system.cpu00.commit.refs                       280533                       # Number of memory references committed
system.cpu00.commit.loads                      161006                       # Number of loads committed
system.cpu00.commit.membars                      1038                       # Number of memory barriers committed
system.cpu00.commit.branches                   100158                       # Number of branches committed
system.cpu00.commit.fp_insts                   116058                       # Number of committed floating point instructions.
system.cpu00.commit.int_insts                  792187                       # Number of committed integer instructions.
system.cpu00.commit.function_calls              22221                       # Number of function calls committed.
system.cpu00.commit.op_class_0::No_OpClass        98661     10.18%     10.18% # Class of committed instruction
system.cpu00.commit.op_class_0::IntAlu         503361     51.96%     62.15% # Class of committed instruction
system.cpu00.commit.op_class_0::IntMult         12689      1.31%     63.46% # Class of committed instruction
system.cpu00.commit.op_class_0::IntDiv              0      0.00%     63.46% # Class of committed instruction
system.cpu00.commit.op_class_0::FloatAdd        35480      3.66%     67.12% # Class of committed instruction
system.cpu00.commit.op_class_0::FloatCmp            8      0.00%     67.12% # Class of committed instruction
system.cpu00.commit.op_class_0::FloatCvt            0      0.00%     67.12% # Class of committed instruction
system.cpu00.commit.op_class_0::FloatMult        36935      3.81%     70.93% # Class of committed instruction
system.cpu00.commit.op_class_0::FloatDiv           14      0.00%     70.93% # Class of committed instruction
system.cpu00.commit.op_class_0::FloatSqrt            0      0.00%     70.93% # Class of committed instruction
system.cpu00.commit.op_class_0::SimdAdd             0      0.00%     70.93% # Class of committed instruction
system.cpu00.commit.op_class_0::SimdAddAcc            0      0.00%     70.93% # Class of committed instruction
system.cpu00.commit.op_class_0::SimdAlu             0      0.00%     70.93% # Class of committed instruction
system.cpu00.commit.op_class_0::SimdCmp             0      0.00%     70.93% # Class of committed instruction
system.cpu00.commit.op_class_0::SimdCvt             0      0.00%     70.93% # Class of committed instruction
system.cpu00.commit.op_class_0::SimdMisc            0      0.00%     70.93% # Class of committed instruction
system.cpu00.commit.op_class_0::SimdMult            0      0.00%     70.93% # Class of committed instruction
system.cpu00.commit.op_class_0::SimdMultAcc            0      0.00%     70.93% # Class of committed instruction
system.cpu00.commit.op_class_0::SimdShift            0      0.00%     70.93% # Class of committed instruction
system.cpu00.commit.op_class_0::SimdShiftAcc            0      0.00%     70.93% # Class of committed instruction
system.cpu00.commit.op_class_0::SimdSqrt            0      0.00%     70.93% # Class of committed instruction
system.cpu00.commit.op_class_0::SimdFloatAdd            0      0.00%     70.93% # Class of committed instruction
system.cpu00.commit.op_class_0::SimdFloatAlu            0      0.00%     70.93% # Class of committed instruction
system.cpu00.commit.op_class_0::SimdFloatCmp            0      0.00%     70.93% # Class of committed instruction
system.cpu00.commit.op_class_0::SimdFloatCvt            0      0.00%     70.93% # Class of committed instruction
system.cpu00.commit.op_class_0::SimdFloatDiv            0      0.00%     70.93% # Class of committed instruction
system.cpu00.commit.op_class_0::SimdFloatMisc            0      0.00%     70.93% # Class of committed instruction
system.cpu00.commit.op_class_0::SimdFloatMult            0      0.00%     70.93% # Class of committed instruction
system.cpu00.commit.op_class_0::SimdFloatMultAcc            0      0.00%     70.93% # Class of committed instruction
system.cpu00.commit.op_class_0::SimdFloatSqrt            0      0.00%     70.93% # Class of committed instruction
system.cpu00.commit.op_class_0::MemRead        162044     16.73%     87.66% # Class of committed instruction
system.cpu00.commit.op_class_0::MemWrite       119528     12.34%    100.00% # Class of committed instruction
system.cpu00.commit.op_class_0::IprAccess            0      0.00%    100.00% # Class of committed instruction
system.cpu00.commit.op_class_0::InstPrefetch            0      0.00%    100.00% # Class of committed instruction
system.cpu00.commit.op_class_0::total          968720                       # Class of committed instruction
system.cpu00.commit.bw_lim_events               53019                       # number cycles where commit BW limit reached
system.cpu00.rob.rob_reads                    1819995                       # The number of ROB reads
system.cpu00.rob.rob_writes                   2165111                       # The number of ROB writes
system.cpu00.timesIdled                          1441                       # Number of times that the entire CPU went into an idle state and unscheduled itself
system.cpu00.idleCycles                        205807                       # Total number of cycles that the CPU has spent unscheduled due to idling
system.cpu00.quiesceCycles                      70930                       # Total number of cycles that CPU has spent quiesced or waiting for an interrupt
system.cpu00.committedInsts                    870059                       # Number of Instructions Simulated
system.cpu00.committedOps                      870059                       # Number of Ops (including micro ops) Simulated
system.cpu00.cpi                             1.178168                       # CPI: Cycles Per Instruction
system.cpu00.cpi_total                       1.178168                       # CPI: Total CPI of All Threads
system.cpu00.ipc                             0.848775                       # IPC: Instructions Per Cycle
system.cpu00.ipc_total                       0.848775                       # IPC: Total IPC of All Threads
system.cpu00.int_regfile_reads                1141113                       # number of integer regfile reads
system.cpu00.int_regfile_writes                613134                       # number of integer regfile writes
system.cpu00.fp_regfile_reads                  151803                       # number of floating regfile reads
system.cpu00.fp_regfile_writes                 102907                       # number of floating regfile writes
system.cpu00.misc_regfile_reads                  4992                       # number of misc regfile reads
system.cpu00.misc_regfile_writes                 2254                       # number of misc regfile writes
system.cpu00.dcache.tags.replacements           12001                       # number of replacements
system.cpu00.dcache.tags.tagsinuse         123.921954                       # Cycle average of tags in use
system.cpu00.dcache.tags.total_refs            228398                       # Total number of references to valid blocks.
system.cpu00.dcache.tags.sampled_refs           12128                       # Sample count of references to valid blocks.
system.cpu00.dcache.tags.avg_refs           18.832289                       # Average number of references to valid blocks.
system.cpu00.dcache.tags.warmup_cycle        90944960                       # Cycle when the warmup percentage was hit.
system.cpu00.dcache.tags.occ_blocks::cpu00.data   123.921954                       # Average occupied blocks per requestor
system.cpu00.dcache.tags.occ_percent::cpu00.data     0.968140                       # Average percentage of cache occupancy
system.cpu00.dcache.tags.occ_percent::total     0.968140                       # Average percentage of cache occupancy
system.cpu00.dcache.tags.occ_task_id_blocks::1024          127                       # Occupied blocks per task id
system.cpu00.dcache.tags.age_task_id_blocks_1024::0           68                       # Occupied blocks per task id
system.cpu00.dcache.tags.age_task_id_blocks_1024::1           53                       # Occupied blocks per task id
system.cpu00.dcache.tags.age_task_id_blocks_1024::2            6                       # Occupied blocks per task id
system.cpu00.dcache.tags.occ_task_id_percent::1024     0.992188                       # Percentage of cache occupancy per task id
system.cpu00.dcache.tags.tag_accesses          554901                       # Number of tag accesses
system.cpu00.dcache.tags.data_accesses         554901                       # Number of data accesses
system.cpu00.dcache.ReadReq_hits::cpu00.data       141648                       # number of ReadReq hits
system.cpu00.dcache.ReadReq_hits::total        141648                       # number of ReadReq hits
system.cpu00.dcache.WriteReq_hits::cpu00.data        84582                       # number of WriteReq hits
system.cpu00.dcache.WriteReq_hits::total        84582                       # number of WriteReq hits
system.cpu00.dcache.LoadLockedReq_hits::cpu00.data          927                       # number of LoadLockedReq hits
system.cpu00.dcache.LoadLockedReq_hits::total          927                       # number of LoadLockedReq hits
system.cpu00.dcache.StoreCondReq_hits::cpu00.data         1101                       # number of StoreCondReq hits
system.cpu00.dcache.StoreCondReq_hits::total         1101                       # number of StoreCondReq hits
system.cpu00.dcache.demand_hits::cpu00.data       226230                       # number of demand (read+write) hits
system.cpu00.dcache.demand_hits::total         226230                       # number of demand (read+write) hits
system.cpu00.dcache.overall_hits::cpu00.data       226230                       # number of overall hits
system.cpu00.dcache.overall_hits::total        226230                       # number of overall hits
system.cpu00.dcache.ReadReq_misses::cpu00.data         8898                       # number of ReadReq misses
system.cpu00.dcache.ReadReq_misses::total         8898                       # number of ReadReq misses
system.cpu00.dcache.WriteReq_misses::cpu00.data        33821                       # number of WriteReq misses
system.cpu00.dcache.WriteReq_misses::total        33821                       # number of WriteReq misses
system.cpu00.dcache.LoadLockedReq_misses::cpu00.data          267                       # number of LoadLockedReq misses
system.cpu00.dcache.LoadLockedReq_misses::total          267                       # number of LoadLockedReq misses
system.cpu00.dcache.StoreCondReq_misses::cpu00.data           23                       # number of StoreCondReq misses
system.cpu00.dcache.StoreCondReq_misses::total           23                       # number of StoreCondReq misses
system.cpu00.dcache.demand_misses::cpu00.data        42719                       # number of demand (read+write) misses
system.cpu00.dcache.demand_misses::total        42719                       # number of demand (read+write) misses
system.cpu00.dcache.overall_misses::cpu00.data        42719                       # number of overall misses
system.cpu00.dcache.overall_misses::total        42719                       # number of overall misses
system.cpu00.dcache.ReadReq_miss_latency::cpu00.data    413861400                       # number of ReadReq miss cycles
system.cpu00.dcache.ReadReq_miss_latency::total    413861400                       # number of ReadReq miss cycles
system.cpu00.dcache.WriteReq_miss_latency::cpu00.data   5474230796                       # number of WriteReq miss cycles
system.cpu00.dcache.WriteReq_miss_latency::total   5474230796                       # number of WriteReq miss cycles
system.cpu00.dcache.LoadLockedReq_miss_latency::cpu00.data      3040860                       # number of LoadLockedReq miss cycles
system.cpu00.dcache.LoadLockedReq_miss_latency::total      3040860                       # number of LoadLockedReq miss cycles
system.cpu00.dcache.StoreCondReq_miss_latency::cpu00.data       474360                       # number of StoreCondReq miss cycles
system.cpu00.dcache.StoreCondReq_miss_latency::total       474360                       # number of StoreCondReq miss cycles
system.cpu00.dcache.demand_miss_latency::cpu00.data   5888092196                       # number of demand (read+write) miss cycles
system.cpu00.dcache.demand_miss_latency::total   5888092196                       # number of demand (read+write) miss cycles
system.cpu00.dcache.overall_miss_latency::cpu00.data   5888092196                       # number of overall miss cycles
system.cpu00.dcache.overall_miss_latency::total   5888092196                       # number of overall miss cycles
system.cpu00.dcache.ReadReq_accesses::cpu00.data       150546                       # number of ReadReq accesses(hits+misses)
system.cpu00.dcache.ReadReq_accesses::total       150546                       # number of ReadReq accesses(hits+misses)
system.cpu00.dcache.WriteReq_accesses::cpu00.data       118403                       # number of WriteReq accesses(hits+misses)
system.cpu00.dcache.WriteReq_accesses::total       118403                       # number of WriteReq accesses(hits+misses)
system.cpu00.dcache.LoadLockedReq_accesses::cpu00.data         1194                       # number of LoadLockedReq accesses(hits+misses)
system.cpu00.dcache.LoadLockedReq_accesses::total         1194                       # number of LoadLockedReq accesses(hits+misses)
system.cpu00.dcache.StoreCondReq_accesses::cpu00.data         1124                       # number of StoreCondReq accesses(hits+misses)
system.cpu00.dcache.StoreCondReq_accesses::total         1124                       # number of StoreCondReq accesses(hits+misses)
system.cpu00.dcache.demand_accesses::cpu00.data       268949                       # number of demand (read+write) accesses
system.cpu00.dcache.demand_accesses::total       268949                       # number of demand (read+write) accesses
system.cpu00.dcache.overall_accesses::cpu00.data       268949                       # number of overall (read+write) accesses
system.cpu00.dcache.overall_accesses::total       268949                       # number of overall (read+write) accesses
system.cpu00.dcache.ReadReq_miss_rate::cpu00.data     0.059105                       # miss rate for ReadReq accesses
system.cpu00.dcache.ReadReq_miss_rate::total     0.059105                       # miss rate for ReadReq accesses
system.cpu00.dcache.WriteReq_miss_rate::cpu00.data     0.285643                       # miss rate for WriteReq accesses
system.cpu00.dcache.WriteReq_miss_rate::total     0.285643                       # miss rate for WriteReq accesses
system.cpu00.dcache.LoadLockedReq_miss_rate::cpu00.data     0.223618                       # miss rate for LoadLockedReq accesses
system.cpu00.dcache.LoadLockedReq_miss_rate::total     0.223618                       # miss rate for LoadLockedReq accesses
system.cpu00.dcache.StoreCondReq_miss_rate::cpu00.data     0.020463                       # miss rate for StoreCondReq accesses
system.cpu00.dcache.StoreCondReq_miss_rate::total     0.020463                       # miss rate for StoreCondReq accesses
system.cpu00.dcache.demand_miss_rate::cpu00.data     0.158837                       # miss rate for demand accesses
system.cpu00.dcache.demand_miss_rate::total     0.158837                       # miss rate for demand accesses
system.cpu00.dcache.overall_miss_rate::cpu00.data     0.158837                       # miss rate for overall accesses
system.cpu00.dcache.overall_miss_rate::total     0.158837                       # miss rate for overall accesses
system.cpu00.dcache.ReadReq_avg_miss_latency::cpu00.data 46511.732974                       # average ReadReq miss latency
system.cpu00.dcache.ReadReq_avg_miss_latency::total 46511.732974                       # average ReadReq miss latency
system.cpu00.dcache.WriteReq_avg_miss_latency::cpu00.data 161858.927767                       # average WriteReq miss latency
system.cpu00.dcache.WriteReq_avg_miss_latency::total 161858.927767                       # average WriteReq miss latency
system.cpu00.dcache.LoadLockedReq_avg_miss_latency::cpu00.data 11388.988764                       # average LoadLockedReq miss latency
system.cpu00.dcache.LoadLockedReq_avg_miss_latency::total 11388.988764                       # average LoadLockedReq miss latency
system.cpu00.dcache.StoreCondReq_avg_miss_latency::cpu00.data 20624.347826                       # average StoreCondReq miss latency
system.cpu00.dcache.StoreCondReq_avg_miss_latency::total 20624.347826                       # average StoreCondReq miss latency
system.cpu00.dcache.demand_avg_miss_latency::cpu00.data 137833.099932                       # average overall miss latency
system.cpu00.dcache.demand_avg_miss_latency::total 137833.099932                       # average overall miss latency
system.cpu00.dcache.overall_avg_miss_latency::cpu00.data 137833.099932                       # average overall miss latency
system.cpu00.dcache.overall_avg_miss_latency::total 137833.099932                       # average overall miss latency
system.cpu00.dcache.blocked_cycles::no_mshrs       158062                       # number of cycles access was blocked
system.cpu00.dcache.blocked_cycles::no_targets            0                       # number of cycles access was blocked
system.cpu00.dcache.blocked::no_mshrs            2741                       # number of cycles access was blocked
system.cpu00.dcache.blocked::no_targets             0                       # number of cycles access was blocked
system.cpu00.dcache.avg_blocked_cycles::no_mshrs    57.665815                       # average number of cycles each access was blocked
system.cpu00.dcache.avg_blocked_cycles::no_targets          nan                       # average number of cycles each access was blocked
system.cpu00.dcache.fast_writes                     0                       # number of fast writes performed
system.cpu00.dcache.cache_copies                    0                       # number of cache copies performed
system.cpu00.dcache.writebacks::writebacks         8923                       # number of writebacks
system.cpu00.dcache.writebacks::total            8923                       # number of writebacks
system.cpu00.dcache.ReadReq_mshr_hits::cpu00.data         3070                       # number of ReadReq MSHR hits
system.cpu00.dcache.ReadReq_mshr_hits::total         3070                       # number of ReadReq MSHR hits
system.cpu00.dcache.WriteReq_mshr_hits::cpu00.data        27321                       # number of WriteReq MSHR hits
system.cpu00.dcache.WriteReq_mshr_hits::total        27321                       # number of WriteReq MSHR hits
system.cpu00.dcache.LoadLockedReq_mshr_hits::cpu00.data          148                       # number of LoadLockedReq MSHR hits
system.cpu00.dcache.LoadLockedReq_mshr_hits::total          148                       # number of LoadLockedReq MSHR hits
system.cpu00.dcache.demand_mshr_hits::cpu00.data        30391                       # number of demand (read+write) MSHR hits
system.cpu00.dcache.demand_mshr_hits::total        30391                       # number of demand (read+write) MSHR hits
system.cpu00.dcache.overall_mshr_hits::cpu00.data        30391                       # number of overall MSHR hits
system.cpu00.dcache.overall_mshr_hits::total        30391                       # number of overall MSHR hits
system.cpu00.dcache.ReadReq_mshr_misses::cpu00.data         5828                       # number of ReadReq MSHR misses
system.cpu00.dcache.ReadReq_mshr_misses::total         5828                       # number of ReadReq MSHR misses
system.cpu00.dcache.WriteReq_mshr_misses::cpu00.data         6500                       # number of WriteReq MSHR misses
system.cpu00.dcache.WriteReq_mshr_misses::total         6500                       # number of WriteReq MSHR misses
system.cpu00.dcache.LoadLockedReq_mshr_misses::cpu00.data          119                       # number of LoadLockedReq MSHR misses
system.cpu00.dcache.LoadLockedReq_mshr_misses::total          119                       # number of LoadLockedReq MSHR misses
system.cpu00.dcache.StoreCondReq_mshr_misses::cpu00.data           22                       # number of StoreCondReq MSHR misses
system.cpu00.dcache.StoreCondReq_mshr_misses::total           22                       # number of StoreCondReq MSHR misses
system.cpu00.dcache.demand_mshr_misses::cpu00.data        12328                       # number of demand (read+write) MSHR misses
system.cpu00.dcache.demand_mshr_misses::total        12328                       # number of demand (read+write) MSHR misses
system.cpu00.dcache.overall_mshr_misses::cpu00.data        12328                       # number of overall MSHR misses
system.cpu00.dcache.overall_mshr_misses::total        12328                       # number of overall MSHR misses
system.cpu00.dcache.ReadReq_mshr_miss_latency::cpu00.data    242915980                       # number of ReadReq MSHR miss cycles
system.cpu00.dcache.ReadReq_mshr_miss_latency::total    242915980                       # number of ReadReq MSHR miss cycles
system.cpu00.dcache.WriteReq_mshr_miss_latency::cpu00.data   1159548140                       # number of WriteReq MSHR miss cycles
system.cpu00.dcache.WriteReq_mshr_miss_latency::total   1159548140                       # number of WriteReq MSHR miss cycles
system.cpu00.dcache.LoadLockedReq_mshr_miss_latency::cpu00.data      1268500                       # number of LoadLockedReq MSHR miss cycles
system.cpu00.dcache.LoadLockedReq_mshr_miss_latency::total      1268500                       # number of LoadLockedReq MSHR miss cycles
system.cpu00.dcache.StoreCondReq_mshr_miss_latency::cpu00.data       448400                       # number of StoreCondReq MSHR miss cycles
system.cpu00.dcache.StoreCondReq_mshr_miss_latency::total       448400                       # number of StoreCondReq MSHR miss cycles
system.cpu00.dcache.demand_mshr_miss_latency::cpu00.data   1402464120                       # number of demand (read+write) MSHR miss cycles
system.cpu00.dcache.demand_mshr_miss_latency::total   1402464120                       # number of demand (read+write) MSHR miss cycles
system.cpu00.dcache.overall_mshr_miss_latency::cpu00.data   1402464120                       # number of overall MSHR miss cycles
system.cpu00.dcache.overall_mshr_miss_latency::total   1402464120                       # number of overall MSHR miss cycles
system.cpu00.dcache.ReadReq_mshr_miss_rate::cpu00.data     0.038712                       # mshr miss rate for ReadReq accesses
system.cpu00.dcache.ReadReq_mshr_miss_rate::total     0.038712                       # mshr miss rate for ReadReq accesses
system.cpu00.dcache.WriteReq_mshr_miss_rate::cpu00.data     0.054897                       # mshr miss rate for WriteReq accesses
system.cpu00.dcache.WriteReq_mshr_miss_rate::total     0.054897                       # mshr miss rate for WriteReq accesses
system.cpu00.dcache.LoadLockedReq_mshr_miss_rate::cpu00.data     0.099665                       # mshr miss rate for LoadLockedReq accesses
system.cpu00.dcache.LoadLockedReq_mshr_miss_rate::total     0.099665                       # mshr miss rate for LoadLockedReq accesses
system.cpu00.dcache.StoreCondReq_mshr_miss_rate::cpu00.data     0.019573                       # mshr miss rate for StoreCondReq accesses
system.cpu00.dcache.StoreCondReq_mshr_miss_rate::total     0.019573                       # mshr miss rate for StoreCondReq accesses
system.cpu00.dcache.demand_mshr_miss_rate::cpu00.data     0.045838                       # mshr miss rate for demand accesses
system.cpu00.dcache.demand_mshr_miss_rate::total     0.045838                       # mshr miss rate for demand accesses
system.cpu00.dcache.overall_mshr_miss_rate::cpu00.data     0.045838                       # mshr miss rate for overall accesses
system.cpu00.dcache.overall_mshr_miss_rate::total     0.045838                       # mshr miss rate for overall accesses
system.cpu00.dcache.ReadReq_avg_mshr_miss_latency::cpu00.data 41680.847632                       # average ReadReq mshr miss latency
system.cpu00.dcache.ReadReq_avg_mshr_miss_latency::total 41680.847632                       # average ReadReq mshr miss latency
system.cpu00.dcache.WriteReq_avg_mshr_miss_latency::cpu00.data 178392.021538                       # average WriteReq mshr miss latency
system.cpu00.dcache.WriteReq_avg_mshr_miss_latency::total 178392.021538                       # average WriteReq mshr miss latency
[...]
system.tol2bus.pkt_count_system.cpu06.dcache.mem_side::system.l2.cpu_side         1130                       # Packet count per connected master and slave (bytes)
system.tol2bus.pkt_count_system.cpu07.icache.mem_side::system.l2.cpu_side         1678                       # Packet count per connected master and slave (bytes)
system.tol2bus.pkt_count_system.cpu07.dcache.mem_side::system.l2.cpu_side         1744                       # Packet count per connected master and slave (bytes)
system.tol2bus.pkt_count_system.cpu08.icache.mem_side::system.l2.cpu_side         1475                       # Packet count per connected master and slave (bytes)
system.tol2bus.pkt_count_system.cpu08.dcache.mem_side::system.l2.cpu_side         1385                       # Packet count per connected master and slave (bytes)
system.tol2bus.pkt_count_system.cpu09.icache.mem_side::system.l2.cpu_side         2674                       # Packet count per connected master and slave (bytes)
system.tol2bus.pkt_count_system.cpu09.dcache.mem_side::system.l2.cpu_side         3137                       # Packet count per connected master and slave (bytes)
system.tol2bus.pkt_count_system.cpu10.icache.mem_side::system.l2.cpu_side         1603                       # Packet count per connected master and slave (bytes)
system.tol2bus.pkt_count_system.cpu10.dcache.mem_side::system.l2.cpu_side         1625                       # Packet count per connected master and slave (bytes)
system.tol2bus.pkt_count_system.cpu11.icache.mem_side::system.l2.cpu_side         3052                       # Packet count per connected master and slave (bytes)
system.tol2bus.pkt_count_system.cpu11.dcache.mem_side::system.l2.cpu_side         3347                       # Packet count per connected master and slave (bytes)
system.tol2bus.pkt_count_system.cpu12.icache.mem_side::system.l2.cpu_side         3211                       # Packet count per connected master and slave (bytes)
system.tol2bus.pkt_count_system.cpu12.dcache.mem_side::system.l2.cpu_side         3295                       # Packet count per connected master and slave (bytes)
system.tol2bus.pkt_count_system.cpu13.icache.mem_side::system.l2.cpu_side         2578                       # Packet count per connected master and slave (bytes)
system.tol2bus.pkt_count_system.cpu13.dcache.mem_side::system.l2.cpu_side         2483                       # Packet count per connected master and slave (bytes)
system.tol2bus.pkt_count_system.cpu14.icache.mem_side::system.l2.cpu_side         1226                       # Packet count per connected master and slave (bytes)
system.tol2bus.pkt_count_system.cpu14.dcache.mem_side::system.l2.cpu_side         1228                       # Packet count per connected master and slave (bytes)
system.tol2bus.pkt_count_system.cpu15.icache.mem_side::system.l2.cpu_side         2971                       # Packet count per connected master and slave (bytes)
system.tol2bus.pkt_count_system.cpu15.dcache.mem_side::system.l2.cpu_side         3395                       # Packet count per connected master and slave (bytes)
system.tol2bus.pkt_count::total                120891                       # Packet count per connected master and slave (bytes)
system.tol2bus.pkt_size_system.cpu00.icache.mem_side::system.l2.cpu_side       970880                       # Cumulative packet size per connected master and slave (bytes)
system.tol2bus.pkt_size_system.cpu00.dcache.mem_side::system.l2.cpu_side      1345856                       # Cumulative packet size per connected master and slave (bytes)
system.tol2bus.pkt_size_system.cpu01.icache.mem_side::system.l2.cpu_side        95360                       # Cumulative packet size per connected master and slave (bytes)
system.tol2bus.pkt_size_system.cpu01.dcache.mem_side::system.l2.cpu_side        61440                       # Cumulative packet size per connected master and slave (bytes)
system.tol2bus.pkt_size_system.cpu02.icache.mem_side::system.l2.cpu_side        36224                       # Cumulative packet size per connected master and slave (bytes)
system.tol2bus.pkt_size_system.cpu02.dcache.mem_side::system.l2.cpu_side        35328                       # Cumulative packet size per connected master and slave (bytes)
system.tol2bus.pkt_size_system.cpu03.icache.mem_side::system.l2.cpu_side        84992                       # Cumulative packet size per connected master and slave (bytes)
system.tol2bus.pkt_size_system.cpu03.dcache.mem_side::system.l2.cpu_side        53184                       # Cumulative packet size per connected master and slave (bytes)
system.tol2bus.pkt_size_system.cpu04.icache.mem_side::system.l2.cpu_side        38144                       # Cumulative packet size per connected master and slave (bytes)
system.tol2bus.pkt_size_system.cpu04.dcache.mem_side::system.l2.cpu_side        31360                       # Cumulative packet size per connected master and slave (bytes)
system.tol2bus.pkt_size_system.cpu05.icache.mem_side::system.l2.cpu_side        31296                       # Cumulative packet size per connected master and slave (bytes)
system.tol2bus.pkt_size_system.cpu05.dcache.mem_side::system.l2.cpu_side        28416                       # Cumulative packet size per connected master and slave (bytes)
system.tol2bus.pkt_size_system.cpu06.icache.mem_side::system.l2.cpu_side        39744                       # Cumulative packet size per connected master and slave (bytes)
system.tol2bus.pkt_size_system.cpu06.dcache.mem_side::system.l2.cpu_side        30208                       # Cumulative packet size per connected master and slave (bytes)
system.tol2bus.pkt_size_system.cpu07.icache.mem_side::system.l2.cpu_side        61760                       # Cumulative packet size per connected master and slave (bytes)
system.tol2bus.pkt_size_system.cpu07.dcache.mem_side::system.l2.cpu_side        34432                       # Cumulative packet size per connected master and slave (bytes)
system.tol2bus.pkt_size_system.cpu08.icache.mem_side::system.l2.cpu_side        53376                       # Cumulative packet size per connected master and slave (bytes)
system.tol2bus.pkt_size_system.cpu08.dcache.mem_side::system.l2.cpu_side        40704                       # Cumulative packet size per connected master and slave (bytes)
system.tol2bus.pkt_size_system.cpu09.icache.mem_side::system.l2.cpu_side       103744                       # Cumulative packet size per connected master and slave (bytes)
system.tol2bus.pkt_size_system.cpu09.dcache.mem_side::system.l2.cpu_side        63936                       # Cumulative packet size per connected master and slave (bytes)
system.tol2bus.pkt_size_system.cpu10.icache.mem_side::system.l2.cpu_side        59136                       # Cumulative packet size per connected master and slave (bytes)
system.tol2bus.pkt_size_system.cpu10.dcache.mem_side::system.l2.cpu_side        46272                       # Cumulative packet size per connected master and slave (bytes)
system.tol2bus.pkt_size_system.cpu11.icache.mem_side::system.l2.cpu_side       120320                       # Cumulative packet size per connected master and slave (bytes)
system.tol2bus.pkt_size_system.cpu11.dcache.mem_side::system.l2.cpu_side        52800                       # Cumulative packet size per connected master and slave (bytes)
system.tol2bus.pkt_size_system.cpu12.icache.mem_side::system.l2.cpu_side       126592                       # Cumulative packet size per connected master and slave (bytes)
system.tol2bus.pkt_size_system.cpu12.dcache.mem_side::system.l2.cpu_side        60416                       # Cumulative packet size per connected master and slave (bytes)
system.tol2bus.pkt_size_system.cpu13.icache.mem_side::system.l2.cpu_side        99776                       # Cumulative packet size per connected master and slave (bytes)
system.tol2bus.pkt_size_system.cpu13.dcache.mem_side::system.l2.cpu_side        50880                       # Cumulative packet size per connected master and slave (bytes)
system.tol2bus.pkt_size_system.cpu14.icache.mem_side::system.l2.cpu_side        43136                       # Cumulative packet size per connected master and slave (bytes)
system.tol2bus.pkt_size_system.cpu14.dcache.mem_side::system.l2.cpu_side        34432                       # Cumulative packet size per connected master and slave (bytes)
system.tol2bus.pkt_size_system.cpu15.icache.mem_side::system.l2.cpu_side       116160                       # Cumulative packet size per connected master and slave (bytes)
system.tol2bus.pkt_size_system.cpu15.dcache.mem_side::system.l2.cpu_side        74240                       # Cumulative packet size per connected master and slave (bytes)
system.tol2bus.pkt_size::total                4124544                       # Cumulative packet size per connected master and slave (bytes)
system.tol2bus.snoops                            8844                       # Total snoops (count)
system.tol2bus.snoop_fanout::samples            48953                       # Request fanout histogram
system.tol2bus.snoop_fanout::mean            2.295692                       # Request fanout histogram
system.tol2bus.snoop_fanout::stdev           3.854814                       # Request fanout histogram
system.tol2bus.snoop_fanout::underflows             0      0.00%      0.00% # Request fanout histogram
system.tol2bus.snoop_fanout::0                  26233     53.59%     53.59% # Request fanout histogram
system.tol2bus.snoop_fanout::1                   8107     16.56%     70.15% # Request fanout histogram
system.tol2bus.snoop_fanout::2                   2360      4.82%     74.97% # Request fanout histogram
system.tol2bus.snoop_fanout::3                   1299      2.65%     77.62% # Request fanout histogram
system.tol2bus.snoop_fanout::4                   1223      2.50%     80.12% # Request fanout histogram
system.tol2bus.snoop_fanout::5                   1146      2.34%     82.46% # Request fanout histogram
system.tol2bus.snoop_fanout::6                   1093      2.23%     84.70% # Request fanout histogram
system.tol2bus.snoop_fanout::7                   1061      2.17%     86.86% # Request fanout histogram
system.tol2bus.snoop_fanout::8                   1030      2.10%     88.97% # Request fanout histogram
system.tol2bus.snoop_fanout::9                    991      2.02%     90.99% # Request fanout histogram
system.tol2bus.snoop_fanout::10                   865      1.77%     92.76% # Request fanout histogram
system.tol2bus.snoop_fanout::11                   863      1.76%     94.52% # Request fanout histogram
system.tol2bus.snoop_fanout::12                   757      1.55%     96.07% # Request fanout histogram
system.tol2bus.snoop_fanout::13                   738      1.51%     97.58% # Request fanout histogram
system.tol2bus.snoop_fanout::14                   736      1.50%     99.08% # Request fanout histogram
system.tol2bus.snoop_fanout::15                   450      0.92%    100.00% # Request fanout histogram
system.tol2bus.snoop_fanout::16                     1      0.00%    100.00% # Request fanout histogram
system.tol2bus.snoop_fanout::17                     0      0.00%    100.00% # Request fanout histogram
system.tol2bus.snoop_fanout::18                     0      0.00%    100.00% # Request fanout histogram
system.tol2bus.snoop_fanout::19                     0      0.00%    100.00% # Request fanout histogram
system.tol2bus.snoop_fanout::20                     0      0.00%    100.00% # Request fanout histogram
system.tol2bus.snoop_fanout::21                     0      0.00%    100.00% # Request fanout histogram
system.tol2bus.snoop_fanout::22                     0      0.00%    100.00% # Request fanout histogram
system.tol2bus.snoop_fanout::23                     0      0.00%    100.00% # Request fanout histogram
system.tol2bus.snoop_fanout::24                     0      0.00%    100.00% # Request fanout histogram
system.tol2bus.snoop_fanout::25                     0      0.00%    100.00% # Request fanout histogram
system.tol2bus.snoop_fanout::26                     0      0.00%    100.00% # Request fanout histogram
system.tol2bus.snoop_fanout::27                     0      0.00%    100.00% # Request fanout histogram
system.tol2bus.snoop_fanout::28                     0      0.00%    100.00% # Request fanout histogram
system.tol2bus.snoop_fanout::29                     0      0.00%    100.00% # Request fanout histogram
system.tol2bus.snoop_fanout::30                     0      0.00%    100.00% # Request fanout histogram
system.tol2bus.snoop_fanout::31                     0      0.00%    100.00% # Request fanout histogram
system.tol2bus.snoop_fanout::32                     0      0.00%    100.00% # Request fanout histogram
system.tol2bus.snoop_fanout::overflows              0      0.00%    100.00% # Request fanout histogram
system.tol2bus.snoop_fanout::min_value              0                       # Request fanout histogram
system.tol2bus.snoop_fanout::max_value             16                       # Request fanout histogram
system.tol2bus.snoop_fanout::total              48953                       # Request fanout histogram
system.tol2bus.reqLayer0.occupancy          155451453                       # Layer occupancy (ticks)
system.tol2bus.reqLayer0.utilization             12.0                       # Layer utilization (%)
system.tol2bus.respLayer0.occupancy          28091103                       # Layer occupancy (ticks)
system.tol2bus.respLayer0.utilization             2.2                       # Layer utilization (%)
system.tol2bus.respLayer1.occupancy          44168166                       # Layer occupancy (ticks)
system.tol2bus.respLayer1.utilization             3.4                       # Layer utilization (%)
system.tol2bus.respLayer2.occupancy           3556996                       # Layer occupancy (ticks)
system.tol2bus.respLayer2.utilization             0.3                       # Layer utilization (%)
system.tol2bus.respLayer3.occupancy           4986221                       # Layer occupancy (ticks)
system.tol2bus.respLayer3.utilization             0.4                       # Layer utilization (%)
system.tol2bus.respLayer4.occupancy           1752571                       # Layer occupancy (ticks)
system.tol2bus.respLayer4.utilization             0.1                       # Layer utilization (%)
system.tol2bus.respLayer5.occupancy           1760120                       # Layer occupancy (ticks)
system.tol2bus.respLayer5.utilization             0.1                       # Layer utilization (%)
system.tol2bus.respLayer6.occupancy           3261326                       # Layer occupancy (ticks)
system.tol2bus.respLayer6.utilization             0.3                       # Layer utilization (%)
system.tol2bus.respLayer7.occupancy           3857023                       # Layer occupancy (ticks)
system.tol2bus.respLayer7.utilization             0.3                       # Layer utilization (%)
system.tol2bus.respLayer8.occupancy           1821123                       # Layer occupancy (ticks)
system.tol2bus.respLayer8.utilization             0.1                       # Layer utilization (%)
system.tol2bus.respLayer9.occupancy           1800598                       # Layer occupancy (ticks)
system.tol2bus.respLayer9.utilization             0.1                       # Layer utilization (%)
system.tol2bus.respLayer10.occupancy          1588586                       # Layer occupancy (ticks)
system.tol2bus.respLayer10.utilization            0.1                       # Layer utilization (%)
system.tol2bus.respLayer11.occupancy          1666106                       # Layer occupancy (ticks)
system.tol2bus.respLayer11.utilization            0.1                       # Layer utilization (%)
system.tol2bus.respLayer12.occupancy          1858498                       # Layer occupancy (ticks)
system.tol2bus.respLayer12.utilization            0.1                       # Layer utilization (%)
system.tol2bus.respLayer13.occupancy          1716873                       # Layer occupancy (ticks)
system.tol2bus.respLayer13.utilization            0.1                       # Layer utilization (%)
system.tol2bus.respLayer14.occupancy          2594822                       # Layer occupancy (ticks)
system.tol2bus.respLayer14.utilization            0.2                       # Layer utilization (%)
system.tol2bus.respLayer15.occupancy          2420082                       # Layer occupancy (ticks)
system.tol2bus.respLayer15.utilization            0.2                       # Layer utilization (%)
system.tol2bus.respLayer16.occupancy          2361335                       # Layer occupancy (ticks)
system.tol2bus.respLayer16.utilization            0.2                       # Layer utilization (%)
system.tol2bus.respLayer17.occupancy          2099143                       # Layer occupancy (ticks)
system.tol2bus.respLayer17.utilization            0.2                       # Layer utilization (%)
system.tol2bus.respLayer18.occupancy          3798443                       # Layer occupancy (ticks)
system.tol2bus.respLayer18.utilization            0.3                       # Layer utilization (%)
system.tol2bus.respLayer19.occupancy          4908708                       # Layer occupancy (ticks)
system.tol2bus.respLayer19.utilization            0.4                       # Layer utilization (%)
system.tol2bus.respLayer20.occupancy          2487644                       # Layer occupancy (ticks)
system.tol2bus.respLayer20.utilization            0.2                       # Layer utilization (%)
system.tol2bus.respLayer21.occupancy          2449595                       # Layer occupancy (ticks)
system.tol2bus.respLayer21.utilization            0.2                       # Layer utilization (%)
system.tol2bus.respLayer22.occupancy          4231196                       # Layer occupancy (ticks)
system.tol2bus.respLayer22.utilization            0.3                       # Layer utilization (%)
system.tol2bus.respLayer23.occupancy          5515266                       # Layer occupancy (ticks)
system.tol2bus.respLayer23.utilization            0.4                       # Layer utilization (%)
system.tol2bus.respLayer24.occupancy          4478663                       # Layer occupancy (ticks)
system.tol2bus.respLayer24.utilization            0.3                       # Layer utilization (%)
system.tol2bus.respLayer25.occupancy          5368933                       # Layer occupancy (ticks)
system.tol2bus.respLayer25.utilization            0.4                       # Layer utilization (%)
system.tol2bus.respLayer26.occupancy          3695475                       # Layer occupancy (ticks)
system.tol2bus.respLayer26.utilization            0.3                       # Layer utilization (%)
system.tol2bus.respLayer27.occupancy          3963724                       # Layer occupancy (ticks)
system.tol2bus.respLayer27.utilization            0.3                       # Layer utilization (%)
system.tol2bus.respLayer28.occupancy          2021781                       # Layer occupancy (ticks)
system.tol2bus.respLayer28.utilization            0.2                       # Layer utilization (%)
system.tol2bus.respLayer29.occupancy          1791172                       # Layer occupancy (ticks)
system.tol2bus.respLayer29.utilization            0.1                       # Layer utilization (%)
system.tol2bus.respLayer30.occupancy          4172413                       # Layer occupancy (ticks)
system.tol2bus.respLayer30.utilization            0.3                       # Layer utilization (%)
system.tol2bus.respLayer31.occupancy          5348039                       # Layer occupancy (ticks)
system.tol2bus.respLayer31.utilization            0.4                       # Layer utilization (%)

---------- End Simulation Statistics   ----------
