
---------- Begin Simulation Statistics ----------
sim_seconds                                  0.010209                       # Number of seconds simulated
sim_ticks                                 10208898234                       # Number of ticks simulated
final_tick                                10208898234                       # Number of ticks from beginning of simulation (restored from checkpoints and never reset)
sim_freq                                 1000000000000                       # Frequency of simulated ticks
host_inst_rate                                 112025                       # Simulator instruction rate (inst/s)
host_op_rate                                   112025                       # Simulator op (including micro ops) rate (op/s)
host_tick_rate                               17864845                       # Simulator tick rate (ticks/s)
host_mem_usage                                 692384                       # Number of bytes of host memory used
host_seconds                                   571.45                       # Real time elapsed on the host
sim_insts                                    64016640                       # Number of instructions simulated
sim_ops                                      64016640                       # Number of ops (including micro ops) simulated
system.voltage_domain.voltage                       1                       # Voltage in Volts
system.clk_domain.clock                          1000                       # Clock period in ticks
system.mem_ctrls.bytes_read::cpu00.inst        128896                       # Number of bytes read from this memory
system.mem_ctrls.bytes_read::cpu00.data        892544                       # Number of bytes read from this memory
system.mem_ctrls.bytes_read::cpu01.inst         12800                       # Number of bytes read from this memory
system.mem_ctrls.bytes_read::cpu01.data        606144                       # Number of bytes read from this memory
system.mem_ctrls.bytes_read::cpu02.inst          1216                       # Number of bytes read from this memory
system.mem_ctrls.bytes_read::cpu02.data        619264                       # Number of bytes read from this memory
system.mem_ctrls.bytes_read::cpu03.inst            64                       # Number of bytes read from this memory
system.mem_ctrls.bytes_read::cpu03.data        608000                       # Number of bytes read from this memory
system.mem_ctrls.bytes_read::cpu04.inst           128                       # Number of bytes read from this memory
system.mem_ctrls.bytes_read::cpu04.data        636288                       # Number of bytes read from this memory
system.mem_ctrls.bytes_read::cpu05.inst            64                       # Number of bytes read from this memory
system.mem_ctrls.bytes_read::cpu05.data        606656                       # Number of bytes read from this memory
system.mem_ctrls.bytes_read::cpu06.inst           448                       # Number of bytes read from this memory
system.mem_ctrls.bytes_read::cpu06.data        620352                       # Number of bytes read from this memory
system.mem_ctrls.bytes_read::cpu07.inst            64                       # Number of bytes read from this memory
system.mem_ctrls.bytes_read::cpu07.data        605952                       # Number of bytes read from this memory
system.mem_ctrls.bytes_read::cpu08.inst           128                       # Number of bytes read from this memory
system.mem_ctrls.bytes_read::cpu08.data        651648                       # Number of bytes read from this memory
system.mem_ctrls.bytes_read::cpu09.inst            64                       # Number of bytes read from this memory
system.mem_ctrls.bytes_read::cpu09.data        549632                       # Number of bytes read from this memory
system.mem_ctrls.bytes_read::cpu10.data        624064                       # Number of bytes read from this memory
system.mem_ctrls.bytes_read::cpu11.inst            64                       # Number of bytes read from this memory
system.mem_ctrls.bytes_read::cpu11.data        545984                       # Number of bytes read from this memory
system.mem_ctrls.bytes_read::cpu12.inst          1088                       # Number of bytes read from this memory
system.mem_ctrls.bytes_read::cpu12.data        580800                       # Number of bytes read from this memory
system.mem_ctrls.bytes_read::cpu13.inst           128                       # Number of bytes read from this memory
system.mem_ctrls.bytes_read::cpu13.data        535360                       # Number of bytes read from this memory
system.mem_ctrls.bytes_read::cpu14.inst           256                       # Number of bytes read from this memory
system.mem_ctrls.bytes_read::cpu14.data        568576                       # Number of bytes read from this memory
system.mem_ctrls.bytes_read::cpu15.inst           896                       # Number of bytes read from this memory
system.mem_ctrls.bytes_read::cpu15.data        574080                       # Number of bytes read from this memory
system.mem_ctrls.bytes_read::total            9971648                       # Number of bytes read from this memory
system.mem_ctrls.bytes_inst_read::cpu00.inst       128896                       # Number of instructions bytes read from this memory
system.mem_ctrls.bytes_inst_read::cpu01.inst        12800                       # Number of instructions bytes read from this memory
system.mem_ctrls.bytes_inst_read::cpu02.inst         1216                       # Number of instructions bytes read from this memory
system.mem_ctrls.bytes_inst_read::cpu03.inst           64                       # Number of instructions bytes read from this memory
system.mem_ctrls.bytes_inst_read::cpu04.inst          128                       # Number of instructions bytes read from this memory
system.mem_ctrls.bytes_inst_read::cpu05.inst           64                       # Number of instructions bytes read from this memory
system.mem_ctrls.bytes_inst_read::cpu06.inst          448                       # Number of instructions bytes read from this memory
system.mem_ctrls.bytes_inst_read::cpu07.inst           64                       # Number of instructions bytes read from this memory
system.mem_ctrls.bytes_inst_read::cpu08.inst          128                       # Number of instructions bytes read from this memory
system.mem_ctrls.bytes_inst_read::cpu09.inst           64                       # Number of instructions bytes read from this memory
system.mem_ctrls.bytes_inst_read::cpu11.inst           64                       # Number of instructions bytes read from this memory
system.mem_ctrls.bytes_inst_read::cpu12.inst         1088                       # Number of instructions bytes read from this memory
system.mem_ctrls.bytes_inst_read::cpu13.inst          128                       # Number of instructions bytes read from this memory
system.mem_ctrls.bytes_inst_read::cpu14.inst          256                       # Number of instructions bytes read from this memory
system.mem_ctrls.bytes_inst_read::cpu15.inst          896                       # Number of instructions bytes read from this memory
system.mem_ctrls.bytes_inst_read::total        146304                       # Number of instructions bytes read from this memory
system.mem_ctrls.bytes_written::writebacks      5872064                       # Number of bytes written to this memory
system.mem_ctrls.bytes_written::total         5872064                       # Number of bytes written to this memory
system.mem_ctrls.num_reads::cpu00.inst           2014                       # Number of read requests responded to by this memory
system.mem_ctrls.num_reads::cpu00.data          13946                       # Number of read requests responded to by this memory
system.mem_ctrls.num_reads::cpu01.inst            200                       # Number of read requests responded to by this memory
system.mem_ctrls.num_reads::cpu01.data           9471                       # Number of read requests responded to by this memory
system.mem_ctrls.num_reads::cpu02.inst             19                       # Number of read requests responded to by this memory
system.mem_ctrls.num_reads::cpu02.data           9676                       # Number of read requests responded to by this memory
system.mem_ctrls.num_reads::cpu03.inst              1                       # Number of read requests responded to by this memory
system.mem_ctrls.num_reads::cpu03.data           9500                       # Number of read requests responded to by this memory
system.mem_ctrls.num_reads::cpu04.inst              2                       # Number of read requests responded to by this memory
system.mem_ctrls.num_reads::cpu04.data           9942                       # Number of read requests responded to by this memory
system.mem_ctrls.num_reads::cpu05.inst              1                       # Number of read requests responded to by this memory
system.mem_ctrls.num_reads::cpu05.data           9479                       # Number of read requests responded to by this memory
system.mem_ctrls.num_reads::cpu06.inst              7                       # Number of read requests responded to by this memory
system.mem_ctrls.num_reads::cpu06.data           9693                       # Number of read requests responded to by this memory
system.mem_ctrls.num_reads::cpu07.inst              1                       # Number of read requests responded to by this memory
system.mem_ctrls.num_reads::cpu07.data           9468                       # Number of read requests responded to by this memory
system.mem_ctrls.num_reads::cpu08.inst              2                       # Number of read requests responded to by this memory
system.mem_ctrls.num_reads::cpu08.data          10182                       # Number of read requests responded to by this memory
system.mem_ctrls.num_reads::cpu09.inst              1                       # Number of read requests responded to by this memory
system.mem_ctrls.num_reads::cpu09.data           8588                       # Number of read requests responded to by this memory
system.mem_ctrls.num_reads::cpu10.data           9751                       # Number of read requests responded to by this memory
system.mem_ctrls.num_reads::cpu11.inst              1                       # Number of read requests responded to by this memory
system.mem_ctrls.num_reads::cpu11.data           8531                       # Number of read requests responded to by this memory
system.mem_ctrls.num_reads::cpu12.inst             17                       # Number of read requests responded to by this memory
system.mem_ctrls.num_reads::cpu12.data           9075                       # Number of read requests responded to by this memory
system.mem_ctrls.num_reads::cpu13.inst              2                       # Number of read requests responded to by this memory
system.mem_ctrls.num_reads::cpu13.data           8365                       # Number of read requests responded to by this memory
system.mem_ctrls.num_reads::cpu14.inst              4                       # Number of read requests responded to by this memory
system.mem_ctrls.num_reads::cpu14.data           8884                       # Number of read requests responded to by this memory
system.mem_ctrls.num_reads::cpu15.inst             14                       # Number of read requests responded to by this memory
system.mem_ctrls.num_reads::cpu15.data           8970                       # Number of read requests responded to by this memory
system.mem_ctrls.num_reads::total              155807                       # Number of read requests responded to by this memory
system.mem_ctrls.num_writes::writebacks         91751                       # Number of write requests responded to by this memory
system.mem_ctrls.num_writes::total              91751                       # Number of write requests responded to by this memory
system.mem_ctrls.bw_read::cpu00.inst         12625848                       # Total read bandwidth from this memory (bytes/s)
system.mem_ctrls.bw_read::cpu00.data         87428044                       # Total read bandwidth from this memory (bytes/s)
system.mem_ctrls.bw_read::cpu01.inst          1253808                       # Total read bandwidth from this memory (bytes/s)
system.mem_ctrls.bw_read::cpu01.data         59374086                       # Total read bandwidth from this memory (bytes/s)
system.mem_ctrls.bw_read::cpu02.inst           119112                       # Total read bandwidth from this memory (bytes/s)
system.mem_ctrls.bw_read::cpu02.data         60659239                       # Total read bandwidth from this memory (bytes/s)
system.mem_ctrls.bw_read::cpu03.inst             6269                       # Total read bandwidth from this memory (bytes/s)
system.mem_ctrls.bw_read::cpu03.data         59555888                       # Total read bandwidth from this memory (bytes/s)
system.mem_ctrls.bw_read::cpu04.inst            12538                       # Total read bandwidth from this memory (bytes/s)
system.mem_ctrls.bw_read::cpu04.data         62326804                       # Total read bandwidth from this memory (bytes/s)
system.mem_ctrls.bw_read::cpu05.inst             6269                       # Total read bandwidth from this memory (bytes/s)
system.mem_ctrls.bw_read::cpu05.data         59424238                       # Total read bandwidth from this memory (bytes/s)
system.mem_ctrls.bw_read::cpu06.inst            43883                       # Total read bandwidth from this memory (bytes/s)
system.mem_ctrls.bw_read::cpu06.data         60765813                       # Total read bandwidth from this memory (bytes/s)
system.mem_ctrls.bw_read::cpu07.inst             6269                       # Total read bandwidth from this memory (bytes/s)
system.mem_ctrls.bw_read::cpu07.data         59355279                       # Total read bandwidth from this memory (bytes/s)
system.mem_ctrls.bw_read::cpu08.inst            12538                       # Total read bandwidth from this memory (bytes/s)
system.mem_ctrls.bw_read::cpu08.data         63831374                       # Total read bandwidth from this memory (bytes/s)
system.mem_ctrls.bw_read::cpu09.inst             6269                       # Total read bandwidth from this memory (bytes/s)
system.mem_ctrls.bw_read::cpu09.data         53838523                       # Total read bandwidth from this memory (bytes/s)
system.mem_ctrls.bw_read::cpu10.data         61129417                       # Total read bandwidth from this memory (bytes/s)
system.mem_ctrls.bw_read::cpu11.inst             6269                       # Total read bandwidth from this memory (bytes/s)
system.mem_ctrls.bw_read::cpu11.data         53481187                       # Total read bandwidth from this memory (bytes/s)
system.mem_ctrls.bw_read::cpu12.inst           106574                       # Total read bandwidth from this memory (bytes/s)
system.mem_ctrls.bw_read::cpu12.data         56891546                       # Total read bandwidth from this memory (bytes/s)
system.mem_ctrls.bw_read::cpu13.inst            12538                       # Total read bandwidth from this memory (bytes/s)
system.mem_ctrls.bw_read::cpu13.data         52440527                       # Total read bandwidth from this memory (bytes/s)
system.mem_ctrls.bw_read::cpu14.inst            25076                       # Total read bandwidth from this memory (bytes/s)
system.mem_ctrls.bw_read::cpu14.data         55694159                       # Total read bandwidth from this memory (bytes/s)
system.mem_ctrls.bw_read::cpu15.inst            87767                       # Total read bandwidth from this memory (bytes/s)
system.mem_ctrls.bw_read::cpu15.data         56233296                       # Total read bandwidth from this memory (bytes/s)
system.mem_ctrls.bw_read::total             976760447                       # Total read bandwidth from this memory (bytes/s)
system.mem_ctrls.bw_inst_read::cpu00.inst     12625848                       # Instruction read bandwidth from this memory (bytes/s)
system.mem_ctrls.bw_inst_read::cpu01.inst      1253808                       # Instruction read bandwidth from this memory (bytes/s)
system.mem_ctrls.bw_inst_read::cpu02.inst       119112                       # Instruction read bandwidth from this memory (bytes/s)
system.mem_ctrls.bw_inst_read::cpu03.inst         6269                       # Instruction read bandwidth from this memory (bytes/s)
system.mem_ctrls.bw_inst_read::cpu04.inst        12538                       # Instruction read bandwidth from this memory (bytes/s)
system.mem_ctrls.bw_inst_read::cpu05.inst         6269                       # Instruction read bandwidth from this memory (bytes/s)
system.mem_ctrls.bw_inst_read::cpu06.inst        43883                       # Instruction read bandwidth from this memory (bytes/s)
system.mem_ctrls.bw_inst_read::cpu07.inst         6269                       # Instruction read bandwidth from this memory (bytes/s)
system.mem_ctrls.bw_inst_read::cpu08.inst        12538                       # Instruction read bandwidth from this memory (bytes/s)
system.mem_ctrls.bw_inst_read::cpu09.inst         6269                       # Instruction read bandwidth from this memory (bytes/s)
system.mem_ctrls.bw_inst_read::cpu11.inst         6269                       # Instruction read bandwidth from this memory (bytes/s)
system.mem_ctrls.bw_inst_read::cpu12.inst       106574                       # Instruction read bandwidth from this memory (bytes/s)
system.mem_ctrls.bw_inst_read::cpu13.inst        12538                       # Instruction read bandwidth from this memory (bytes/s)
system.mem_ctrls.bw_inst_read::cpu14.inst        25076                       # Instruction read bandwidth from this memory (bytes/s)
system.mem_ctrls.bw_inst_read::cpu15.inst        87767                       # Instruction read bandwidth from this memory (bytes/s)
system.mem_ctrls.bw_inst_read::total         14331027                       # Instruction read bandwidth from this memory (bytes/s)
system.mem_ctrls.bw_write::writebacks       575190766                       # Write bandwidth from this memory (bytes/s)
system.mem_ctrls.bw_write::total            575190766                       # Write bandwidth from this memory (bytes/s)
system.mem_ctrls.bw_total::writebacks       575190766                       # Total bandwidth to/from this memory (bytes/s)
system.mem_ctrls.bw_total::cpu00.inst        12625848                       # Total bandwidth to/from this memory (bytes/s)
system.mem_ctrls.bw_total::cpu00.data        87428044                       # Total bandwidth to/from this memory (bytes/s)
system.mem_ctrls.bw_total::cpu01.inst         1253808                       # Total bandwidth to/from this memory (bytes/s)
system.mem_ctrls.bw_total::cpu01.data        59374086                       # Total bandwidth to/from this memory (bytes/s)
system.mem_ctrls.bw_total::cpu02.inst          119112                       # Total bandwidth to/from this memory (bytes/s)
system.mem_ctrls.bw_total::cpu02.data        60659239                       # Total bandwidth to/from this memory (bytes/s)
system.mem_ctrls.bw_total::cpu03.inst            6269                       # Total bandwidth to/from this memory (bytes/s)
system.mem_ctrls.bw_total::cpu03.data        59555888                       # Total bandwidth to/from this memory (bytes/s)
system.mem_ctrls.bw_total::cpu04.inst           12538                       # Total bandwidth to/from this memory (bytes/s)
system.mem_ctrls.bw_total::cpu04.data        62326804                       # Total bandwidth to/from this memory (bytes/s)
system.mem_ctrls.bw_total::cpu05.inst            6269                       # Total bandwidth to/from this memory (bytes/s)
system.mem_ctrls.bw_total::cpu05.data        59424238                       # Total bandwidth to/from this memory (bytes/s)
system.mem_ctrls.bw_total::cpu06.inst           43883                       # Total bandwidth to/from this memory (bytes/s)
system.mem_ctrls.bw_total::cpu06.data        60765813                       # Total bandwidth to/from this memory (bytes/s)
system.mem_ctrls.bw_total::cpu07.inst            6269                       # Total bandwidth to/from this memory (bytes/s)
system.mem_ctrls.bw_total::cpu07.data        59355279                       # Total bandwidth to/from this memory (bytes/s)
system.mem_ctrls.bw_total::cpu08.inst           12538                       # Total bandwidth to/from this memory (bytes/s)
system.mem_ctrls.bw_total::cpu08.data        63831374                       # Total bandwidth to/from this memory (bytes/s)
system.mem_ctrls.bw_total::cpu09.inst            6269                       # Total bandwidth to/from this memory (bytes/s)
system.mem_ctrls.bw_total::cpu09.data        53838523                       # Total bandwidth to/from this memory (bytes/s)
system.mem_ctrls.bw_total::cpu10.data        61129417                       # Total bandwidth to/from this memory (bytes/s)
system.mem_ctrls.bw_total::cpu11.inst            6269                       # Total bandwidth to/from this memory (bytes/s)
system.mem_ctrls.bw_total::cpu11.data        53481187                       # Total bandwidth to/from this memory (bytes/s)
system.mem_ctrls.bw_total::cpu12.inst          106574                       # Total bandwidth to/from this memory (bytes/s)
system.mem_ctrls.bw_total::cpu12.data        56891546                       # Total bandwidth to/from this memory (bytes/s)
system.mem_ctrls.bw_total::cpu13.inst           12538                       # Total bandwidth to/from this memory (bytes/s)
system.mem_ctrls.bw_total::cpu13.data        52440527                       # Total bandwidth to/from this memory (bytes/s)
system.mem_ctrls.bw_total::cpu14.inst           25076                       # Total bandwidth to/from this memory (bytes/s)
system.mem_ctrls.bw_total::cpu14.data        55694159                       # Total bandwidth to/from this memory (bytes/s)
system.mem_ctrls.bw_total::cpu15.inst           87767                       # Total bandwidth to/from this memory (bytes/s)
system.mem_ctrls.bw_total::cpu15.data        56233296                       # Total bandwidth to/from this memory (bytes/s)
system.mem_ctrls.bw_total::total           1551951213                       # Total bandwidth to/from this memory (bytes/s)
system.cpu00.branchPred.lookups                332832                       # Number of BP lookups
system.cpu00.branchPred.condPredicted          167565                       # Number of conditional branches predicted
system.cpu00.branchPred.condIncorrect            5337                       # Number of conditional branches incorrect
system.cpu00.branchPred.BTBLookups             233772                       # Number of BTB lookups
system.cpu00.branchPred.BTBHits                210817                       # Number of BTB hits
system.cpu00.branchPred.BTBCorrect                  0                       # Number of correct BTB predictions (this stat may not work properly.
system.cpu00.branchPred.BTBHitPct           90.180603                       # BTB Hit Percentage
system.cpu00.branchPred.usedRAS                 79729                       # Number of times the RAS was used to get a target.
system.cpu00.branchPred.RASInCorrect               86                       # Number of incorrect RAS predictions.
system.cpu00.branchPred.indirectLookups          1702                       # Number of indirect predictor lookups.
system.cpu00.branchPred.indirectHits              992                       # Number of indirect target hits.
system.cpu00.branchPred.indirectMisses            710                       # Number of indirect misses.
system.cpu00.branchPredindirectMispredicted          231                       # Number of mispredicted indirect branches.
system.cpu_voltage_domain.voltage                   1                       # Voltage in Volts
system.cpu_clk_domain.clock                      1161                       # Clock period in ticks
system.cpu00.dtb.fetch_hits                         0                       # ITB hits
system.cpu00.dtb.fetch_misses                       0                       # ITB misses
system.cpu00.dtb.fetch_acv                          0                       # ITB acv
system.cpu00.dtb.fetch_accesses                     0                       # ITB accesses
system.cpu00.dtb.read_hits                    1178162                       # DTB read hits
system.cpu00.dtb.read_misses                     7890                       # DTB read misses
system.cpu00.dtb.read_acv                           2                       # DTB read access violations
system.cpu00.dtb.read_accesses                1186052                       # DTB read accesses
system.cpu00.dtb.write_hits                    355840                       # DTB write hits
system.cpu00.dtb.write_misses                   60372                       # DTB write misses
system.cpu00.dtb.write_acv                          0                       # DTB write access violations
system.cpu00.dtb.write_accesses                416212                       # DTB write accesses
system.cpu00.dtb.data_hits                    1534002                       # DTB hits
system.cpu00.dtb.data_misses                    68262                       # DTB misses
system.cpu00.dtb.data_acv                           2                       # DTB access violations
system.cpu00.dtb.data_accesses                1602264                       # DTB accesses
system.cpu00.itb.fetch_hits                    767650                       # ITB hits
system.cpu00.itb.fetch_misses                     160                       # ITB misses
system.cpu00.itb.fetch_acv                          0                       # ITB acv
system.cpu00.itb.fetch_accesses                767810                       # ITB accesses
system.cpu00.itb.read_hits                          0                       # DTB read hits
system.cpu00.itb.read_misses                        0                       # DTB read misses
system.cpu00.itb.read_acv                           0                       # DTB read access violations
system.cpu00.itb.read_accesses                      0                       # DTB read accesses
system.cpu00.itb.write_hits                         0                       # DTB write hits
system.cpu00.itb.write_misses                       0                       # DTB write misses
system.cpu00.itb.write_acv                          0                       # DTB write access violations
system.cpu00.itb.write_accesses                     0                       # DTB write accesses
system.cpu00.itb.data_hits                          0                       # DTB hits
system.cpu00.itb.data_misses                        0                       # DTB misses
system.cpu00.itb.data_acv                           0                       # DTB access violations
system.cpu00.itb.data_accesses                      0                       # DTB accesses
system.cpu00.workload.num_syscalls               1713                       # Number of system calls
system.cpu00.numCycles                        8496156                       # number of cpu cycles simulated
system.cpu00.numWorkItemsStarted                    0                       # number of work items this cpu started
system.cpu00.numWorkItemsCompleted                  0                       # number of work items this cpu completed
system.cpu00.fetch.icacheStallCycles            96247                       # Number of cycles fetch is stalled on an Icache miss
system.cpu00.fetch.Insts                      7376849                       # Number of instructions fetch has processed
system.cpu00.fetch.Branches                    332832                       # Number of branches that fetch encountered
system.cpu00.fetch.predictedBranches           291538                       # Number of branches that fetch has predicted taken
system.cpu00.fetch.Cycles                     8151597                       # Number of cycles fetch has run and was not squashing or blocked
system.cpu00.fetch.SquashCycles                 48518                       # Number of cycles fetch has spent squashing
system.cpu00.fetch.MiscStallCycles                114                       # Number of cycles fetch has spent waiting on interrupts, or bad addresses, or out of MSHRs
system.cpu00.fetch.PendingTrapStallCycles         7034                       # Number of stall cycles due to pending traps
system.cpu00.fetch.IcacheWaitRetryStallCycles           70                       # Number of stall cycles due to full MSHR
system.cpu00.fetch.CacheLines                  767650                       # Number of cache lines fetched
system.cpu00.fetch.IcacheSquashes                2619                       # Number of outstanding Icache misses that were squashed
system.cpu00.fetch.rateDist::samples          8279321                       # Number of instructions fetched each cycle (Total)
system.cpu00.fetch.rateDist::mean            0.890997                       # Number of instructions fetched each cycle (Total)
system.cpu00.fetch.rateDist::stdev           2.249917                       # Number of instructions fetched each cycle (Total)
system.cpu00.fetch.rateDist::underflows             0      0.00%      0.00% # Number of instructions fetched each cycle (Total)
system.cpu00.fetch.rateDist::0                6927329     83.67%     83.67% # Number of instructions fetched each cycle (Total)
system.cpu00.fetch.rateDist::1                  35293      0.43%     84.10% # Number of instructions fetched each cycle (Total)
system.cpu00.fetch.rateDist::2                 258623      3.12%     87.22% # Number of instructions fetched each cycle (Total)
system.cpu00.fetch.rateDist::3                  29529      0.36%     87.58% # Number of instructions fetched each cycle (Total)
system.cpu00.fetch.rateDist::4                 269773      3.26%     90.84% # Number of instructions fetched each cycle (Total)
system.cpu00.fetch.rateDist::5                  49150      0.59%     91.43% # Number of instructions fetched each cycle (Total)
system.cpu00.fetch.rateDist::6                  89386      1.08%     92.51% # Number of instructions fetched each cycle (Total)
system.cpu00.fetch.rateDist::7                  87339      1.05%     93.56% # Number of instructions fetched each cycle (Total)
system.cpu00.fetch.rateDist::8                 532899      6.44%    100.00% # Number of instructions fetched each cycle (Total)
system.cpu00.fetch.rateDist::overflows              0      0.00%    100.00% # Number of instructions fetched each cycle (Total)
system.cpu00.fetch.rateDist::min_value              0                       # Number of instructions fetched each cycle (Total)
system.cpu00.fetch.rateDist::max_value              8                       # Number of instructions fetched each cycle (Total)
system.cpu00.fetch.rateDist::total            8279321                       # Number of instructions fetched each cycle (Total)
system.cpu00.fetch.branchRate                0.039174                       # Number of branch fetches per cycle
system.cpu00.fetch.rate                      0.868257                       # Number of inst fetches per cycle
system.cpu00.decode.IdleCycles                 263565                       # Number of cycles decode is idle
system.cpu00.decode.BlockedCycles             7151762                       # Number of cycles decode is blocked
system.cpu00.decode.RunCycles                  333437                       # Number of cycles decode is running
system.cpu00.decode.UnblockCycles              507939                       # Number of cycles decode is unblocking
system.cpu00.decode.SquashCycles                22618                       # Number of cycles decode is squashing
system.cpu00.decode.BranchResolved              81611                       # Number of times decode resolved a branch
system.cpu00.decode.BranchMispred                1682                       # Number of times decode detected a branch misprediction
system.cpu00.decode.DecodedInsts              6492145                       # Number of instructions handled by decode
system.cpu00.decode.SquashedInsts                6973                       # Number of squashed instructions handled by decode
system.cpu00.rename.SquashCycles                22618                       # Number of cycles rename is squashing
system.cpu00.rename.IdleCycles                 385991                       # Number of cycles rename is idle
system.cpu00.rename.BlockCycles               3073604                       # Number of cycles rename is blocking
system.cpu00.rename.serializeStallCycles        94954                       # count of cycles rename stalled for serializing inst
system.cpu00.rename.RunCycles                  640821                       # Number of cycles rename is running
system.cpu00.rename.UnblockCycles             4061333                       # Number of cycles rename is unblocking
system.cpu00.rename.RenamedInsts              6325823                       # Number of instructions processed by rename
system.cpu00.rename.ROBFullEvents                2799                       # Number of times rename has blocked due to ROB full
system.cpu00.rename.IQFullEvents              2086710                       # Number of times rename has blocked due to IQ full
system.cpu00.rename.LQFullEvents              1663950                       # Number of times rename has blocked due to LQ full
system.cpu00.rename.SQFullEvents               273803                       # Number of times rename has blocked due to SQ full
system.cpu00.rename.RenamedOperands           5427183                       # Number of destination operands rename has renamed
system.cpu00.rename.RenameLookups             9149638                       # Number of register rename lookups that rename has made
system.cpu00.rename.int_rename_lookups        5131394                       # Number of integer rename lookups
system.cpu00.rename.fp_rename_lookups         4017992                       # Number of floating rename lookups
system.cpu00.rename.CommittedMaps             3930803                       # Number of HB maps that are committed
system.cpu00.rename.UndoneMaps                1496380                       # Number of HB maps that are undone due to squashing
system.cpu00.rename.serializingInsts             2313                       # count of serializing insts renamed
system.cpu00.rename.tempSerializingInsts         1971                       # count of temporary serializing insts renamed
system.cpu00.rename.skidInsts                 3386509                       # count of insts added to the skid buffer
system.cpu00.memDep0.insertedLoads            1198065                       # Number of loads inserted to the mem dependence unit.
system.cpu00.memDep0.insertedStores            532614                       # Number of stores inserted to the mem dependence unit.
system.cpu00.memDep0.conflictingLoads          371416                       # Number of conflicting loads.
system.cpu00.memDep0.conflictingStores         195319                       # Number of conflicting stores.
system.cpu00.iq.iqInstsAdded                  6222976                       # Number of instructions added to the IQ (excludes non-spec)
system.cpu00.iq.iqNonSpecInstsAdded              3203                       # Number of non-speculative instructions added to the IQ
system.cpu00.iq.iqInstsIssued                 5932484                       # Number of instructions issued
system.cpu00.iq.iqSquashedInstsIssued            6905                       # Number of squashed instructions issued
system.cpu00.iq.iqSquashedInstsExamined       1880741                       # Number of squashed instructions iterated over during squash; mainly for profiling
system.cpu00.iq.iqSquashedOperandsExamined       769161                       # Number of squashed operands that are examined and possibly removed from graph
system.cpu00.iq.iqSquashedNonSpecRemoved          499                       # Number of squashed non-spec instructions that were removed
system.cpu00.iq.issued_per_cycle::samples      8279321                       # Number of insts issued each cycle
system.cpu00.iq.issued_per_cycle::mean       0.716542                       # Number of insts issued each cycle
system.cpu00.iq.issued_per_cycle::stdev      1.208023                       # Number of insts issued each cycle
system.cpu00.iq.issued_per_cycle::underflows            0      0.00%      0.00% # Number of insts issued each cycle
system.cpu00.iq.issued_per_cycle::0           4800279     57.98%     57.98% # Number of insts issued each cycle
system.cpu00.iq.issued_per_cycle::1           2250301     27.18%     85.16% # Number of insts issued each cycle
system.cpu00.iq.issued_per_cycle::2            715243      8.64%     93.80% # Number of insts issued each cycle
system.cpu00.iq.issued_per_cycle::3            216991      2.62%     96.42% # Number of insts issued each cycle
system.cpu00.iq.issued_per_cycle::4            115290      1.39%     97.81% # Number of insts issued each cycle
system.cpu00.iq.issued_per_cycle::5             65187      0.79%     98.60% # Number of insts issued each cycle
system.cpu00.iq.issued_per_cycle::6             43898      0.53%     99.13% # Number of insts issued each cycle
system.cpu00.iq.issued_per_cycle::7             26815      0.32%     99.45% # Number of insts issued each cycle
system.cpu00.iq.issued_per_cycle::8             45317      0.55%    100.00% # Number of insts issued each cycle
system.cpu00.iq.issued_per_cycle::overflows            0      0.00%    100.00% # Number of insts issued each cycle
system.cpu00.iq.issued_per_cycle::min_value            0                       # Number of insts issued each cycle
system.cpu00.iq.issued_per_cycle::max_value            8                       # Number of insts issued each cycle
system.cpu00.iq.issued_per_cycle::total       8279321                       # Number of insts issued each cycle
system.cpu00.iq.fu_full::No_OpClass                 0      0.00%      0.00% # attempts to use FU when none available
system.cpu00.iq.fu_full::IntAlu                  4618     10.29%     10.29% # attempts to use FU when none available
system.cpu00.iq.fu_full::IntMult                    0      0.00%     10.29% # attempts to use FU when none available
system.cpu00.iq.fu_full::IntDiv                     0      0.00%     10.29% # attempts to use FU when none available
system.cpu00.iq.fu_full::FloatAdd                   0      0.00%     10.29% # attempts to use FU when none available
system.cpu00.iq.fu_full::FloatCmp                   0      0.00%     10.29% # attempts to use FU when none available
system.cpu00.iq.fu_full::FloatCvt                   0      0.00%     10.29% # attempts to use FU when none available
system.cpu00.iq.fu_full::FloatMult               8237     18.36%     28.65% # attempts to use FU when none available
system.cpu00.iq.fu_full::FloatDiv                   0      0.00%     28.65% # attempts to use FU when none available
system.cpu00.iq.fu_full::FloatSqrt                  0      0.00%     28.65% # attempts to use FU when none available
system.cpu00.iq.fu_full::SimdAdd                    0      0.00%     28.65% # attempts to use FU when none available
system.cpu00.iq.fu_full::SimdAddAcc                 0      0.00%     28.65% # attempts to use FU when none available
system.cpu00.iq.fu_full::SimdAlu                    0      0.00%     28.65% # attempts to use FU when none available
system.cpu00.iq.fu_full::SimdCmp                    0      0.00%     28.65% # attempts to use FU when none available
system.cpu00.iq.fu_full::SimdCvt                    0      0.00%     28.65% # attempts to use FU when none available
system.cpu00.iq.fu_full::SimdMisc                   0      0.00%     28.65% # attempts to use FU when none available
system.cpu00.iq.fu_full::SimdMult                   0      0.00%     28.65% # attempts to use FU when none available
system.cpu00.iq.fu_full::SimdMultAcc                0      0.00%     28.65% # attempts to use FU when none available
system.cpu00.iq.fu_full::SimdShift                  0      0.00%     28.65% # attempts to use FU when none available
system.cpu00.iq.fu_full::SimdShiftAcc               0      0.00%     28.65% # attempts to use FU when none available
system.cpu00.iq.fu_full::SimdSqrt                   0      0.00%     28.65% # attempts to use FU when none available
system.cpu00.iq.fu_full::SimdFloatAdd               0      0.00%     28.65% # attempts to use FU when none available
system.cpu00.iq.fu_full::SimdFloatAlu               0      0.00%     28.65% # attempts to use FU when none available
system.cpu00.iq.fu_full::SimdFloatCmp               0      0.00%     28.65% # attempts to use FU when none available
system.cpu00.iq.fu_full::SimdFloatCvt               0      0.00%     28.65% # attempts to use FU when none available
system.cpu00.iq.fu_full::SimdFloatDiv               0      0.00%     28.65% # attempts to use FU when none available
system.cpu00.iq.fu_full::SimdFloatMisc              0      0.00%     28.65% # attempts to use FU when none available
system.cpu00.iq.fu_full::SimdFloatMult              0      0.00%     28.65% # attempts to use FU when none available
system.cpu00.iq.fu_full::SimdFloatMultAcc            0      0.00%     28.65% # attempts to use FU when none available
system.cpu00.iq.fu_full::SimdFloatSqrt              0      0.00%     28.65% # attempts to use FU when none available
system.cpu00.iq.fu_full::MemRead                25022     55.76%     84.41% # attempts to use FU when none available
system.cpu00.iq.fu_full::MemWrite                6995     15.59%    100.00% # attempts to use FU when none available
system.cpu00.iq.fu_full::IprAccess                  0      0.00%    100.00% # attempts to use FU when none available
system.cpu00.iq.fu_full::InstPrefetch               0      0.00%    100.00% # attempts to use FU when none available
system.cpu00.iq.FU_type_0::No_OpClass               0      0.00%      0.00% # Type of FU issued
system.cpu00.iq.FU_type_0::IntAlu             1757216     29.62%     29.62% # Type of FU issued
system.cpu00.iq.FU_type_0::IntMult                251      0.00%     29.62% # Type of FU issued
system.cpu00.iq.FU_type_0::IntDiv                   0      0.00%     29.62% # Type of FU issued
system.cpu00.iq.FU_type_0::FloatAdd           1713567     28.88%     58.51% # Type of FU issued
system.cpu00.iq.FU_type_0::FloatCmp                11      0.00%     58.51% # Type of FU issued
system.cpu00.iq.FU_type_0::FloatCvt                 0      0.00%     58.51% # Type of FU issued
system.cpu00.iq.FU_type_0::FloatMult           852373     14.37%     72.88% # Type of FU issued
system.cpu00.iq.FU_type_0::FloatDiv                 0      0.00%     72.88% # Type of FU issued
system.cpu00.iq.FU_type_0::FloatSqrt                0      0.00%     72.88% # Type of FU issued
system.cpu00.iq.FU_type_0::SimdAdd                  0      0.00%     72.88% # Type of FU issued
system.cpu00.iq.FU_type_0::SimdAddAcc               0      0.00%     72.88% # Type of FU issued
system.cpu00.iq.FU_type_0::SimdAlu                  0      0.00%     72.88% # Type of FU issued
system.cpu00.iq.FU_type_0::SimdCmp                  0      0.00%     72.88% # Type of FU issued
system.cpu00.iq.FU_type_0::SimdCvt                  0      0.00%     72.88% # Type of FU issued
system.cpu00.iq.FU_type_0::SimdMisc                 0      0.00%     72.88% # Type of FU issued
system.cpu00.iq.FU_type_0::SimdMult                 0      0.00%     72.88% # Type of FU issued
system.cpu00.iq.FU_type_0::SimdMultAcc              0      0.00%     72.88% # Type of FU issued
system.cpu00.iq.FU_type_0::SimdShift                0      0.00%     72.88% # Type of FU issued
system.cpu00.iq.FU_type_0::SimdShiftAcc             0      0.00%     72.88% # Type of FU issued
system.cpu00.iq.FU_type_0::SimdSqrt                 0      0.00%     72.88% # Type of FU issued
system.cpu00.iq.FU_type_0::SimdFloatAdd             0      0.00%     72.88% # Type of FU issued
system.cpu00.iq.FU_type_0::SimdFloatAlu             0      0.00%     72.88% # Type of FU issued
system.cpu00.iq.FU_type_0::SimdFloatCmp             0      0.00%     72.88% # Type of FU issued
system.cpu00.iq.FU_type_0::SimdFloatCvt             0      0.00%     72.88% # Type of FU issued
system.cpu00.iq.FU_type_0::SimdFloatDiv             0      0.00%     72.88% # Type of FU issued
system.cpu00.iq.FU_type_0::SimdFloatMisc            0      0.00%     72.88% # Type of FU issued
system.cpu00.iq.FU_type_0::SimdFloatMult            0      0.00%     72.88% # Type of FU issued
system.cpu00.iq.FU_type_0::SimdFloatMultAcc            0      0.00%     72.88% # Type of FU issued
system.cpu00.iq.FU_type_0::SimdFloatSqrt            0      0.00%     72.88% # Type of FU issued
system.cpu00.iq.FU_type_0::MemRead            1190681     20.07%     92.95% # Type of FU issued
system.cpu00.iq.FU_type_0::MemWrite            418385      7.05%    100.00% # Type of FU issued
system.cpu00.iq.FU_type_0::IprAccess                0      0.00%    100.00% # Type of FU issued
system.cpu00.iq.FU_type_0::InstPrefetch             0      0.00%    100.00% # Type of FU issued
system.cpu00.iq.FU_type_0::total              5932484                       # Type of FU issued
system.cpu00.iq.rate                         0.698255                       # Inst issue rate
system.cpu00.iq.fu_busy_cnt                     44872                       # FU busy when requested
system.cpu00.iq.fu_busy_rate                 0.007564                       # FU busy rate (busy events/executed inst)
system.cpu00.iq.int_inst_queue_reads         14464323                       # Number of integer instruction queue reads
system.cpu00.iq.int_inst_queue_writes         5243451                       # Number of integer instruction queue writes
system.cpu00.iq.int_inst_queue_wakeup_accesses      2879416                       # Number of integer instruction queue wakeup accesses
system.cpu00.iq.fp_inst_queue_reads           5731743                       # Number of floating instruction queue reads
system.cpu00.iq.fp_inst_queue_writes          2863972                       # Number of floating instruction queue writes
system.cpu00.iq.fp_inst_queue_wakeup_accesses      2861628                       # Number of floating instruction queue wakeup accesses
system.cpu00.iq.int_alu_accesses              3107323                       # Number of integer alu accesses
system.cpu00.iq.fp_alu_accesses               2870033                       # Number of floating point alu accesses
system.cpu00.iew.lsq.thread0.forwLoads           9624                       # Number of loads that had data forwarded from stores
system.cpu00.iew.lsq.thread0.invAddrLoads            0                       # Number of loads ignored due to an invalid address
system.cpu00.iew.lsq.thread0.squashedLoads       595352                       # Number of loads squashed
system.cpu00.iew.lsq.thread0.ignoredResponses           55                       # Number of memory responses ignored because the instruction is squashed
system.cpu00.iew.lsq.thread0.memOrderViolation          508                       # Number of memory ordering violations
system.cpu00.iew.lsq.thread0.squashedStores       320485                       # Number of stores squashed
system.cpu00.iew.lsq.thread0.invAddrSwpfs            0                       # Number of software prefetches ignored due to an invalid address
system.cpu00.iew.lsq.thread0.blockedLoads            0                       # Number of blocked loads due to partial load-store forwarding
system.cpu00.iew.lsq.thread0.rescheduledLoads          260                       # Number of loads that were rescheduled
system.cpu00.iew.lsq.thread0.cacheBlocked        97729                       # Number of times an access to memory failed due to the cache being blocked
system.cpu00.iew.iewIdleCycles                      0                       # Number of cycles IEW is idle
system.cpu00.iew.iewSquashCycles                22618                       # Number of cycles IEW is squashing
system.cpu00.iew.iewBlockCycles               1004584                       # Number of cycles IEW is blocking
system.cpu00.iew.iewUnblockCycles              749620                       # Number of cycles IEW is unblocking
system.cpu00.iew.iewDispatchedInsts           6292311                       # Number of instructions dispatched to IQ
system.cpu00.iew.iewDispSquashedInsts            1019                       # Number of squashed instructions skipped by dispatch
system.cpu00.iew.iewDispLoadInsts             1198065                       # Number of dispatched load instructions
system.cpu00.iew.iewDispStoreInsts             532614                       # Number of dispatched store instructions
system.cpu00.iew.iewDispNonSpecInsts             1874                       # Number of dispatched non-speculative instructions
system.cpu00.iew.iewIQFullEvents                44143                       # Number of times the IQ has become full, causing a stall
system.cpu00.iew.iewLSQFullEvents              599741                       # Number of times the LSQ has become full, causing a stall
system.cpu00.iew.memOrderViolationEvents          508                       # Number of memory order violations
system.cpu00.iew.predictedTakenIncorrect         1524                       # Number of branches that were predicted taken incorrectly
system.cpu00.iew.predictedNotTakenIncorrect         2950                       # Number of branches that were predicted not taken incorrectly
system.cpu00.iew.branchMispredicts               4474                       # Number of branch mispredicts detected at execute
system.cpu00.iew.iewExecutedInsts             5923525                       # Number of executed instructions
system.cpu00.iew.iewExecLoadInsts             1186069                       # Number of load instructions executed
system.cpu00.iew.iewExecSquashedInsts            8959                       # Number of squashed instructions skipped in execute
system.cpu00.iew.exec_swp                           0                       # number of swp insts executed
system.cpu00.iew.exec_nop                       66132                       # number of nop insts executed
system.cpu00.iew.exec_refs                    1602303                       # number of memory reference insts executed
system.cpu00.iew.exec_branches                 287724                       # Number of branches executed
system.cpu00.iew.exec_stores                   416234                       # Number of stores executed
system.cpu00.iew.exec_rate                   0.697201                       # Inst execution rate
system.cpu00.iew.wb_sent                      5811518                       # cumulative count of insts sent to commit
system.cpu00.iew.wb_count                     5741044                       # cumulative count of insts written-back
system.cpu00.iew.wb_producers                 4532376                       # num instructions producing a value
system.cpu00.iew.wb_consumers                 5926131                       # num instructions consuming a value
system.cpu00.iew.wb_rate                     0.675723                       # insts written-back per cycle
system.cpu00.iew.wb_fanout                   0.764812                       # average fanout of values written-back
system.cpu00.commit.commitSquashedInsts       1878709                       # The number of squashed insts skipped by commit
system.cpu00.commit.commitNonSpecStalls          2704                       # The number of times commit has been forced to stall to communicate backwards
system.cpu00.commit.branchMispredicts            3696                       # The number of times a branch was mispredicted
system.cpu00.commit.committed_per_cycle::samples      8031099                       # Number of insts commited each cycle
system.cpu00.commit.committed_per_cycle::mean     0.548328                       # Number of insts commited each cycle
system.cpu00.commit.committed_per_cycle::stdev     1.301151                       # Number of insts commited each cycle
system.cpu00.commit.committed_per_cycle::underflows            0      0.00%      0.00% # Number of insts commited each cycle
system.cpu00.commit.committed_per_cycle::0      5808790     72.33%     72.33% # Number of insts commited each cycle
system.cpu00.commit.committed_per_cycle::1      1333077     16.60%     88.93% # Number of insts commited each cycle
system.cpu00.commit.committed_per_cycle::2       495173      6.17%     95.09% # Number of insts commited each cycle
system.cpu00.commit.committed_per_cycle::3       140286      1.75%     96.84% # Number of insts commited each cycle
system.cpu00.commit.committed_per_cycle::4        20456      0.25%     97.09% # Number of insts commited each cycle
system.cpu00.commit.committed_per_cycle::5        80962      1.01%     98.10% # Number of insts commited each cycle
system.cpu00.commit.committed_per_cycle::6        12035      0.15%     98.25% # Number of insts commited each cycle
system.cpu00.commit.committed_per_cycle::7        22012      0.27%     98.53% # Number of insts commited each cycle
system.cpu00.commit.committed_per_cycle::8       118308      1.47%    100.00% # Number of insts commited each cycle
system.cpu00.commit.committed_per_cycle::overflows            0      0.00%    100.00% # Number of insts commited each cycle
system.cpu00.commit.committed_per_cycle::min_value            0                       # Number of insts commited each cycle
system.cpu00.commit.committed_per_cycle::max_value            8                       # Number of insts commited each cycle
system.cpu00.commit.committed_per_cycle::total      8031099                       # Number of insts commited each cycle
system.cpu00.commit.committedInsts            4403673                       # Number of instructions committed
system.cpu00.commit.committedOps              4403673                       # Number of ops (including micro ops) committed
system.cpu00.commit.swp_count                       0                       # Number of s/w prefetches committed
system.cpu00.commit.refs                       814842                       # Number of memory references committed
system.cpu00.commit.loads                      602713                       # Number of loads committed
system.cpu00.commit.membars                      1140                       # Number of memory barriers committed
system.cpu00.commit.branches                   241933                       # Number of branches committed
system.cpu00.commit.fp_insts                  2860888                       # Number of committed floating point instructions.
system.cpu00.commit.int_insts                 1784352                       # Number of committed integer instructions.
system.cpu00.commit.function_calls              75183                       # Number of function calls committed.
system.cpu00.commit.op_class_0::No_OpClass        58236      1.32%      1.32% # Class of committed instruction
system.cpu00.commit.op_class_0::IntAlu         963882     21.89%     23.21% # Class of committed instruction
system.cpu00.commit.op_class_0::IntMult           244      0.01%     23.22% # Class of committed instruction
system.cpu00.commit.op_class_0::IntDiv              0      0.00%     23.22% # Class of committed instruction
system.cpu00.commit.op_class_0::FloatAdd      1713053     38.90%     62.12% # Class of committed instruction
system.cpu00.commit.op_class_0::FloatCmp           10      0.00%     62.12% # Class of committed instruction
system.cpu00.commit.op_class_0::FloatCvt            0      0.00%     62.12% # Class of committed instruction
system.cpu00.commit.op_class_0::FloatMult       852265     19.35%     81.47% # Class of committed instruction
system.cpu00.commit.op_class_0::FloatDiv            0      0.00%     81.47% # Class of committed instruction
system.cpu00.commit.op_class_0::FloatSqrt            0      0.00%     81.47% # Class of committed instruction
system.cpu00.commit.op_class_0::SimdAdd             0      0.00%     81.47% # Class of committed instruction
system.cpu00.commit.op_class_0::SimdAddAcc            0      0.00%     81.47% # Class of committed instruction
system.cpu00.commit.op_class_0::SimdAlu             0      0.00%     81.47% # Class of committed instruction
system.cpu00.commit.op_class_0::SimdCmp             0      0.00%     81.47% # Class of committed instruction
system.cpu00.commit.op_class_0::SimdCvt             0      0.00%     81.47% # Class of committed instruction
system.cpu00.commit.op_class_0::SimdMisc            0      0.00%     81.47% # Class of committed instruction
system.cpu00.commit.op_class_0::SimdMult            0      0.00%     81.47% # Class of committed instruction
system.cpu00.commit.op_class_0::SimdMultAcc            0      0.00%     81.47% # Class of committed instruction
system.cpu00.commit.op_class_0::SimdShift            0      0.00%     81.47% # Class of committed instruction
system.cpu00.commit.op_class_0::SimdShiftAcc            0      0.00%     81.47% # Class of committed instruction
system.cpu00.commit.op_class_0::SimdSqrt            0      0.00%     81.47% # Class of committed instruction
system.cpu00.commit.op_class_0::SimdFloatAdd            0      0.00%     81.47% # Class of committed instruction
system.cpu00.commit.op_class_0::SimdFloatAlu            0      0.00%     81.47% # Class of committed instruction
system.cpu00.commit.op_class_0::SimdFloatCmp            0      0.00%     81.47% # Class of committed instruction
system.cpu00.commit.op_class_0::SimdFloatCvt            0      0.00%     81.47% # Class of committed instruction
system.cpu00.commit.op_class_0::SimdFloatDiv            0      0.00%     81.47% # Class of committed instruction
system.cpu00.commit.op_class_0::SimdFloatMisc            0      0.00%     81.47% # Class of committed instruction
system.cpu00.commit.op_class_0::SimdFloatMult            0      0.00%     81.47% # Class of committed instruction
system.cpu00.commit.op_class_0::SimdFloatMultAcc            0      0.00%     81.47% # Class of committed instruction
system.cpu00.commit.op_class_0::SimdFloatSqrt            0      0.00%     81.47% # Class of committed instruction
system.cpu00.commit.op_class_0::MemRead        603853     13.71%     95.18% # Class of committed instruction
system.cpu00.commit.op_class_0::MemWrite       212130      4.82%    100.00% # Class of committed instruction
system.cpu00.commit.op_class_0::IprAccess            0      0.00%    100.00% # Class of committed instruction
system.cpu00.commit.op_class_0::InstPrefetch            0      0.00%    100.00% # Class of committed instruction
system.cpu00.commit.op_class_0::total         4403673                       # Class of committed instruction
system.cpu00.commit.bw_lim_events              118308                       # number cycles where commit BW limit reached
system.cpu00.rob.rob_reads                   13954920                       # The number of ROB reads
system.cpu00.rob.rob_writes                  12813072                       # The number of ROB writes
system.cpu00.timesIdled                          1499                       # Number of times that the entire CPU went into an idle state and unscheduled itself
system.cpu00.idleCycles                        216835                       # Total number of cycles that the CPU has spent unscheduled due to idling
system.cpu00.quiesceCycles                     297039                       # Total number of cycles that CPU has spent quiesced or waiting for an interrupt
system.cpu00.committedInsts                   4345437                       # Number of Instructions Simulated
system.cpu00.committedOps                     4345437                       # Number of Ops (including micro ops) Simulated
system.cpu00.cpi                             1.955190                       # CPI: Cycles Per Instruction
system.cpu00.cpi_total                       1.955190                       # CPI: Total CPI of All Threads
system.cpu00.ipc                             0.511459                       # IPC: Instructions Per Cycle
system.cpu00.ipc_total                       0.511459                       # IPC: Total IPC of All Threads
system.cpu00.int_regfile_reads                4559075                       # number of integer regfile reads
system.cpu00.int_regfile_writes               2269982                       # number of integer regfile writes
system.cpu00.fp_regfile_reads                 4016755                       # number of floating regfile reads
system.cpu00.fp_regfile_writes                2836025                       # number of floating regfile writes
system.cpu00.misc_regfile_reads                  3012                       # number of misc regfile reads
system.cpu00.misc_regfile_writes                 2496                       # number of misc regfile writes
system.cpu00.dcache.tags.replacements           69278                       # number of replacements
system.cpu00.dcache.tags.tagsinuse          63.787153                       # Cycle average of tags in use
system.cpu00.dcache.tags.total_refs           1136983                       # Total number of references to valid blocks.
system.cpu00.dcache.tags.sampled_refs           69342                       # Sample count of references to valid blocks.
system.cpu00.dcache.tags.avg_refs           16.396744                       # Average number of references to valid blocks.
system.cpu00.dcache.tags.warmup_cycle        87548688                       # Cycle when the warmup percentage was hit.
system.cpu00.dcache.tags.occ_blocks::cpu00.data    63.787153                       # Average occupied blocks per requestor
system.cpu00.dcache.tags.occ_percent::cpu00.data     0.996674                       # Average percentage of cache occupancy
system.cpu00.dcache.tags.occ_percent::total     0.996674                       # Average percentage of cache occupancy
system.cpu00.dcache.tags.occ_task_id_blocks::1024           64                       # Occupied blocks per task id
system.cpu00.dcache.tags.age_task_id_blocks_1024::0           47                       # Occupied blocks per task id
system.cpu00.dcache.tags.age_task_id_blocks_1024::1           16                       # Occupied blocks per task id
system.cpu00.dcache.tags.age_task_id_blocks_1024::2            1                       # Occupied blocks per task id
system.cpu00.dcache.tags.occ_task_id_percent::1024            1                       # Percentage of cache occupancy per task id
system.cpu00.dcache.tags.tag_accesses         2654759                       # Number of tag accesses
system.cpu00.dcache.tags.data_accesses        2654759                       # Number of data accesses
system.cpu00.dcache.ReadReq_hits::cpu00.data      1000580                       # number of ReadReq hits
system.cpu00.dcache.ReadReq_hits::total       1000580                       # number of ReadReq hits
system.cpu00.dcache.WriteReq_hits::cpu00.data       134102                       # number of WriteReq hits
system.cpu00.dcache.WriteReq_hits::total       134102                       # number of WriteReq hits
system.cpu00.dcache.LoadLockedReq_hits::cpu00.data          974                       # number of LoadLockedReq hits
system.cpu00.dcache.LoadLockedReq_hits::total          974                       # number of LoadLockedReq hits
system.cpu00.dcache.StoreCondReq_hits::cpu00.data         1233                       # number of StoreCondReq hits
system.cpu00.dcache.StoreCondReq_hits::total         1233                       # number of StoreCondReq hits
system.cpu00.dcache.demand_hits::cpu00.data      1134682                       # number of demand (read+write) hits
system.cpu00.dcache.demand_hits::total        1134682                       # number of demand (read+write) hits
system.cpu00.dcache.overall_hits::cpu00.data      1134682                       # number of overall hits
system.cpu00.dcache.overall_hits::total       1134682                       # number of overall hits
system.cpu00.dcache.ReadReq_misses::cpu00.data        78611                       # number of ReadReq misses
system.cpu00.dcache.ReadReq_misses::total        78611                       # number of ReadReq misses
system.cpu00.dcache.WriteReq_misses::cpu00.data        76781                       # number of WriteReq misses
system.cpu00.dcache.WriteReq_misses::total        76781                       # number of WriteReq misses
system.cpu00.dcache.LoadLockedReq_misses::cpu00.data          322                       # number of LoadLockedReq misses
system.cpu00.dcache.LoadLockedReq_misses::total          322                       # number of LoadLockedReq misses
system.cpu00.dcache.StoreCondReq_misses::cpu00.data           13                       # number of StoreCondReq misses
system.cpu00.dcache.StoreCondReq_misses::total           13                       # number of StoreCondReq misses
system.cpu00.dcache.demand_misses::cpu00.data       155392                       # number of demand (read+write) misses
system.cpu00.dcache.demand_misses::total       155392                       # number of demand (read+write) misses
system.cpu00.dcache.overall_misses::cpu00.data       155392                       # number of overall misses
system.cpu00.dcache.overall_misses::total       155392                       # number of overall misses
system.cpu00.dcache.ReadReq_miss_latency::cpu00.data   6984904563                       # number of ReadReq miss cycles
system.cpu00.dcache.ReadReq_miss_latency::total   6984904563                       # number of ReadReq miss cycles
system.cpu00.dcache.WriteReq_miss_latency::cpu00.data  10950502938                       # number of WriteReq miss cycles
system.cpu00.dcache.WriteReq_miss_latency::total  10950502938                       # number of WriteReq miss cycles
system.cpu00.dcache.LoadLockedReq_miss_latency::cpu00.data      4241133                       # number of LoadLockedReq miss cycles
system.cpu00.dcache.LoadLockedReq_miss_latency::total      4241133                       # number of LoadLockedReq miss cycles
system.cpu00.dcache.StoreCondReq_miss_latency::cpu00.data       103329                       # number of StoreCondReq miss cycles
system.cpu00.dcache.StoreCondReq_miss_latency::total       103329                       # number of StoreCondReq miss cycles
system.cpu00.dcache.demand_miss_latency::cpu00.data  17935407501                       # number of demand (read+write) miss cycles
system.cpu00.dcache.demand_miss_latency::total  17935407501                       # number of demand (read+write) miss cycles
system.cpu00.dcache.overall_miss_latency::cpu00.data  17935407501                       # number of overall miss cycles
system.cpu00.dcache.overall_miss_latency::total  17935407501                       # number of overall miss cycles
system.cpu00.dcache.ReadReq_accesses::cpu00.data      1079191                       # number of ReadReq accesses(hits+misses)
system.cpu00.dcache.ReadReq_accesses::total      1079191                       # number of ReadReq accesses(hits+misses)
system.cpu00.dcache.WriteReq_accesses::cpu00.data       210883                       # number of WriteReq accesses(hits+misses)
system.cpu00.dcache.WriteReq_accesses::total       210883                       # number of WriteReq accesses(hits+misses)
system.cpu00.dcache.LoadLockedReq_accesses::cpu00.data         1296                       # number of LoadLockedReq accesses(hits+misses)
system.cpu00.dcache.LoadLockedReq_accesses::total         1296                       # number of LoadLockedReq accesses(hits+misses)
system.cpu00.dcache.StoreCondReq_accesses::cpu00.data         1246                       # number of StoreCondReq accesses(hits+misses)
system.cpu00.dcache.StoreCondReq_accesses::total         1246                       # number of StoreCondReq accesses(hits+misses)
system.cpu00.dcache.demand_accesses::cpu00.data      1290074                       # number of demand (read+write) accesses
system.cpu00.dcache.demand_accesses::total      1290074                       # number of demand (read+write) accesses
system.cpu00.dcache.overall_accesses::cpu00.data      1290074                       # number of overall (read+write) accesses
system.cpu00.dcache.overall_accesses::total      1290074                       # number of overall (read+write) accesses
system.cpu00.dcache.ReadReq_miss_rate::cpu00.data     0.072843                       # miss rate for ReadReq accesses
system.cpu00.dcache.ReadReq_miss_rate::total     0.072843                       # miss rate for ReadReq accesses
system.cpu00.dcache.WriteReq_miss_rate::cpu00.data     0.364093                       # miss rate for WriteReq accesses
system.cpu00.dcache.WriteReq_miss_rate::total     0.364093                       # miss rate for WriteReq accesses
system.cpu00.dcache.LoadLockedReq_miss_rate::cpu00.data     0.248457                       # miss rate for LoadLockedReq accesses
system.cpu00.dcache.LoadLockedReq_miss_rate::total     0.248457                       # miss rate for LoadLockedReq accesses
system.cpu00.dcache.StoreCondReq_miss_rate::cpu00.data     0.010433                       # miss rate for StoreCondReq accesses
system.cpu00.dcache.StoreCondReq_miss_rate::total     0.010433                       # miss rate for StoreCondReq accesses
system.cpu00.dcache.demand_miss_rate::cpu00.data     0.120452                       # miss rate for demand accesses
system.cpu00.dcache.demand_miss_rate::total     0.120452                       # miss rate for demand accesses
system.cpu00.dcache.overall_miss_rate::cpu00.data     0.120452                       # miss rate for overall accesses
system.cpu00.dcache.overall_miss_rate::total     0.120452                       # miss rate for overall accesses
system.cpu00.dcache.ReadReq_avg_miss_latency::cpu00.data 88854.035224                       # average ReadReq miss latency
system.cpu00.dcache.ReadReq_avg_miss_latency::total 88854.035224                       # average ReadReq miss latency
system.cpu00.dcache.WriteReq_avg_miss_latency::cpu00.data 142619.957255                       # average WriteReq miss latency
system.cpu00.dcache.WriteReq_avg_miss_latency::total 142619.957255                       # average WriteReq miss latency
system.cpu00.dcache.LoadLockedReq_avg_miss_latency::cpu00.data 13171.220497                       # average LoadLockedReq miss latency
system.cpu00.dcache.LoadLockedReq_avg_miss_latency::total 13171.220497                       # average LoadLockedReq miss latency
system.cpu00.dcache.StoreCondReq_avg_miss_latency::cpu00.data  7948.384615                       # average StoreCondReq miss latency
system.cpu00.dcache.StoreCondReq_avg_miss_latency::total  7948.384615                       # average StoreCondReq miss latency
system.cpu00.dcache.demand_avg_miss_latency::cpu00.data 115420.404532                       # average overall miss latency
system.cpu00.dcache.demand_avg_miss_latency::total 115420.404532                       # average overall miss latency
system.cpu00.dcache.overall_avg_miss_latency::cpu00.data 115420.404532                       # average overall miss latency
system.cpu00.dcache.overall_avg_miss_latency::total 115420.404532                       # average overall miss latency
system.cpu00.dcache.blocked_cycles::no_mshrs       359417                       # number of cycles access was blocked
system.cpu00.dcache.blocked_cycles::no_targets          119                       # number of cycles access was blocked
system.cpu00.dcache.blocked::no_mshrs           10772                       # number of cycles access was blocked
system.cpu00.dcache.blocked::no_targets            15                       # number of cycles access was blocked
system.cpu00.dcache.avg_blocked_cycles::no_mshrs    33.365856                       # average number of cycles each access was blocked
system.cpu00.dcache.avg_blocked_cycles::no_targets     7.933333                       # average number of cycles each access was blocked
system.cpu00.dcache.fast_writes                     0                       # number of fast writes performed
system.cpu00.dcache.cache_copies                    0                       # number of cache copies performed
system.cpu00.dcache.writebacks::writebacks        61072                       # number of writebacks
system.cpu00.dcache.writebacks::total           61072                       # number of writebacks
system.cpu00.dcache.ReadReq_mshr_hits::cpu00.data        48367                       # number of ReadReq MSHR hits
system.cpu00.dcache.ReadReq_mshr_hits::total        48367                       # number of ReadReq MSHR hits
system.cpu00.dcache.WriteReq_mshr_hits::cpu00.data        37623                       # number of WriteReq MSHR hits
system.cpu00.dcache.WriteReq_mshr_hits::total        37623                       # number of WriteReq MSHR hits
system.cpu00.dcache.LoadLockedReq_mshr_hits::cpu00.data          137                       # number of LoadLockedReq MSHR hits
system.cpu00.dcache.LoadLockedReq_mshr_hits::total          137                       # number of LoadLockedReq MSHR hits
system.cpu00.dcache.demand_mshr_hits::cpu00.data        85990                       # number of demand (read+write) MSHR hits
system.cpu00.dcache.demand_mshr_hits::total        85990                       # number of demand (read+write) MSHR hits
system.cpu00.dcache.overall_mshr_hits::cpu00.data        85990                       # number of overall MSHR hits
system.cpu00.dcache.overall_mshr_hits::total        85990                       # number of overall MSHR hits
system.cpu00.dcache.ReadReq_mshr_misses::cpu00.data        30244                       # number of ReadReq MSHR misses
system.cpu00.dcache.ReadReq_mshr_misses::total        30244                       # number of ReadReq MSHR misses
system.cpu00.dcache.WriteReq_mshr_misses::cpu00.data        39158                       # number of WriteReq MSHR misses
system.cpu00.dcache.WriteReq_mshr_misses::total        39158                       # number of WriteReq MSHR misses
system.cpu00.dcache.LoadLockedReq_mshr_misses::cpu00.data          185                       # number of LoadLockedReq MSHR misses
system.cpu00.dcache.LoadLockedReq_mshr_misses::total          185                       # number of LoadLockedReq MSHR misses
system.cpu00.dcache.StoreCondReq_mshr_misses::cpu00.data           13                       # number of StoreCondReq MSHR misses
system.cpu00.dcache.StoreCondReq_mshr_misses::total           13                       # number of StoreCondReq MSHR misses
system.cpu00.dcache.demand_mshr_misses::cpu00.data        69402                       # number of demand (read+write) MSHR misses
system.cpu00.dcache.demand_mshr_misses::total        69402                       # number of demand (read+write) MSHR misses
system.cpu00.dcache.overall_mshr_misses::cpu00.data        69402                       # number of overall MSHR misses
system.cpu00.dcache.overall_mshr_misses::total        69402                       # number of overall MSHR misses
system.cpu00.dcache.ReadReq_mshr_miss_latency::cpu00.data   2603301012                       # number of ReadReq MSHR miss cycles
system.cpu00.dcache.ReadReq_mshr_miss_latency::total   2603301012                       # number of ReadReq MSHR miss cycles
system.cpu00.dcache.WriteReq_mshr_miss_latency::cpu00.data   4884070513                       # number of WriteReq MSHR miss cycles
system.cpu00.dcache.WriteReq_mshr_miss_latency::total   4884070513                       # number of WriteReq MSHR miss cycles
system.cpu00.dcache.LoadLockedReq_mshr_miss_latency::cpu00.data      2015496                       # number of LoadLockedReq MSHR miss cycles
system.cpu00.dcache.LoadLockedReq_mshr_miss_latency::total      2015496                       # number of LoadLockedReq MSHR miss cycles
system.cpu00.dcache.StoreCondReq_mshr_miss_latency::cpu00.data        88236                       # number of StoreCondReq MSHR miss cycles
system.cpu00.dcache.StoreCondReq_mshr_miss_latency::total        88236                       # number of StoreCondReq MSHR miss cycles
system.cpu00.dcache.demand_mshr_miss_latency::cpu00.data   7487371525                       # number of demand (read+write) MSHR miss cycles
system.cpu00.dcache.demand_mshr_miss_latency::total   7487371525                       # number of demand (read+write) MSHR miss cycles
system.cpu00.dcache.overall_mshr_miss_latency::cpu00.data   7487371525                       # number of overall MSHR miss cycles
system.cpu00.dcache.overall_mshr_miss_latency::total   7487371525                       # number of overall MSHR miss cycles
system.cpu00.dcache.ReadReq_mshr_miss_rate::cpu00.data     0.028025                       # mshr miss rate for ReadReq accesses
system.cpu00.dcache.ReadReq_mshr_miss_rate::total     0.028025                       # mshr miss rate for ReadReq accesses
system.cpu00.dcache.WriteReq_mshr_miss_rate::cpu00.data     0.185686                       # mshr miss rate for WriteReq accesses
system.cpu00.dcache.WriteReq_mshr_miss_rate::total     0.185686                       # mshr miss rate for WriteReq accesses
system.cpu00.dcache.LoadLockedReq_mshr_miss_rate::cpu00.data     0.142747                       # mshr miss rate for LoadLockedReq accesses
system.cpu00.dcache.LoadLockedReq_mshr_miss_rate::total     0.142747                       # mshr miss rate for LoadLockedReq accesses
system.cpu00.dcache.StoreCondReq_mshr_miss_rate::cpu00.data     0.010433                       # mshr miss rate for StoreCondReq accesses
system.cpu00.dcache.StoreCondReq_mshr_miss_rate::total     0.010433                       # mshr miss rate for StoreCondReq accesses
system.cpu00.dcache.demand_mshr_miss_rate::cpu00.data     0.053797                       # mshr miss rate for demand accesses
system.cpu00.dcache.demand_mshr_miss_rate::total     0.053797                       # mshr miss rate for demand accesses
system.cpu00.dcache.overall_mshr_miss_rate::cpu00.data     0.053797                       # mshr miss rate for overall accesses
system.cpu00.dcache.overall_mshr_miss_rate::total     0.053797                       # mshr miss rate for overall accesses
system.cpu00.dcache.ReadReq_avg_mshr_miss_latency::cpu00.data 86076.610634                       # average ReadReq mshr miss latency
system.cpu00.dcache.ReadReq_avg_mshr_miss_latency::total 86076.610634                       # average ReadReq mshr miss latency
system.cpu00.dcache.WriteReq_avg_mshr_miss_latency::cpu00.data 124727.271898                       # average WriteReq mshr miss latency
system.cpu00.dcache.WriteReq_avg_mshr_miss_latency::total 124727.271898                       # average WriteReq mshr miss latency
system.cpu00.dcache.LoadLockedReq_avg_mshr_miss_latency::cpu00.data 10894.572973                       # average LoadLockedReq mshr miss latency
system.cpu00.dcache.LoadLockedReq_avg_mshr_miss_latency::total 10894.572973                       # average LoadLockedReq mshr miss latency
system.cpu00.dcache.StoreCondReq_avg_mshr_miss_latency::cpu00.data  6787.384615                       # average StoreCondReq mshr miss latency
system.cpu00.dcache.StoreCondReq_avg_mshr_miss_latency::total  6787.384615                       # average StoreCondReq mshr miss latency
system.cpu00.dcache.demand_avg_mshr_miss_latency::cpu00.data 107884.088715                       # average overall mshr miss latency
[...]
system.tol2bus.pkt_count_system.cpu06.dcache.mem_side::system.l2.cpu_side       163666                       # Packet count per connected master and slave (bytes)
system.tol2bus.pkt_count_system.cpu07.icache.mem_side::system.l2.cpu_side          995                       # Packet count per connected master and slave (bytes)
system.tol2bus.pkt_count_system.cpu07.dcache.mem_side::system.l2.cpu_side       157697                       # Packet count per connected master and slave (bytes)
system.tol2bus.pkt_count_system.cpu08.icache.mem_side::system.l2.cpu_side          844                       # Packet count per connected master and slave (bytes)
system.tol2bus.pkt_count_system.cpu08.dcache.mem_side::system.l2.cpu_side       187340                       # Packet count per connected master and slave (bytes)
system.tol2bus.pkt_count_system.cpu09.icache.mem_side::system.l2.cpu_side          993                       # Packet count per connected master and slave (bytes)
system.tol2bus.pkt_count_system.cpu09.dcache.mem_side::system.l2.cpu_side       157510                       # Packet count per connected master and slave (bytes)
system.tol2bus.pkt_count_system.cpu10.icache.mem_side::system.l2.cpu_side          846                       # Packet count per connected master and slave (bytes)
system.tol2bus.pkt_count_system.cpu10.dcache.mem_side::system.l2.cpu_side       162334                       # Packet count per connected master and slave (bytes)
system.tol2bus.pkt_count_system.cpu11.icache.mem_side::system.l2.cpu_side          995                       # Packet count per connected master and slave (bytes)
system.tol2bus.pkt_count_system.cpu11.dcache.mem_side::system.l2.cpu_side       157026                       # Packet count per connected master and slave (bytes)
system.tol2bus.pkt_count_system.cpu12.icache.mem_side::system.l2.cpu_side         1086                       # Packet count per connected master and slave (bytes)
system.tol2bus.pkt_count_system.cpu12.dcache.mem_side::system.l2.cpu_side       175028                       # Packet count per connected master and slave (bytes)
system.tol2bus.pkt_count_system.cpu13.icache.mem_side::system.l2.cpu_side          844                       # Packet count per connected master and slave (bytes)
system.tol2bus.pkt_count_system.cpu13.dcache.mem_side::system.l2.cpu_side       156924                       # Packet count per connected master and slave (bytes)
system.tol2bus.pkt_count_system.cpu14.icache.mem_side::system.l2.cpu_side         1008                       # Packet count per connected master and slave (bytes)
system.tol2bus.pkt_count_system.cpu14.dcache.mem_side::system.l2.cpu_side       165146                       # Packet count per connected master and slave (bytes)
system.tol2bus.pkt_count_system.cpu15.icache.mem_side::system.l2.cpu_side         1002                       # Packet count per connected master and slave (bytes)
system.tol2bus.pkt_count_system.cpu15.dcache.mem_side::system.l2.cpu_side       163468                       # Packet count per connected master and slave (bytes)
system.tol2bus.pkt_count::total               2694564                       # Packet count per connected master and slave (bytes)
system.tol2bus.pkt_size_system.cpu00.icache.mem_side::system.l2.cpu_side       949120                       # Cumulative packet size per connected master and slave (bytes)
system.tol2bus.pkt_size_system.cpu00.dcache.mem_side::system.l2.cpu_side      8328384                       # Cumulative packet size per connected master and slave (bytes)
system.tol2bus.pkt_size_system.cpu01.icache.mem_side::system.l2.cpu_side        37248                       # Cumulative packet size per connected master and slave (bytes)
system.tol2bus.pkt_size_system.cpu01.dcache.mem_side::system.l2.cpu_side      6376832                       # Cumulative packet size per connected master and slave (bytes)
system.tol2bus.pkt_size_system.cpu02.icache.mem_side::system.l2.cpu_side        29888                       # Cumulative packet size per connected master and slave (bytes)
system.tol2bus.pkt_size_system.cpu02.dcache.mem_side::system.l2.cpu_side      6604096                       # Cumulative packet size per connected master and slave (bytes)
system.tol2bus.pkt_size_system.cpu03.icache.mem_side::system.l2.cpu_side        34624                       # Cumulative packet size per connected master and slave (bytes)
system.tol2bus.pkt_size_system.cpu03.dcache.mem_side::system.l2.cpu_side      6383168                       # Cumulative packet size per connected master and slave (bytes)
system.tol2bus.pkt_size_system.cpu04.icache.mem_side::system.l2.cpu_side        28544                       # Cumulative packet size per connected master and slave (bytes)
system.tol2bus.pkt_size_system.cpu04.dcache.mem_side::system.l2.cpu_side      7126144                       # Cumulative packet size per connected master and slave (bytes)
system.tol2bus.pkt_size_system.cpu05.icache.mem_side::system.l2.cpu_side        34432                       # Cumulative packet size per connected master and slave (bytes)
system.tol2bus.pkt_size_system.cpu05.dcache.mem_side::system.l2.cpu_side      6392384                       # Cumulative packet size per connected master and slave (bytes)
system.tol2bus.pkt_size_system.cpu06.icache.mem_side::system.l2.cpu_side        28544                       # Cumulative packet size per connected master and slave (bytes)
system.tol2bus.pkt_size_system.cpu06.dcache.mem_side::system.l2.cpu_side      6676544                       # Cumulative packet size per connected master and slave (bytes)
system.tol2bus.pkt_size_system.cpu07.icache.mem_side::system.l2.cpu_side        34496                       # Cumulative packet size per connected master and slave (bytes)
system.tol2bus.pkt_size_system.cpu07.dcache.mem_side::system.l2.cpu_side      6445888                       # Cumulative packet size per connected master and slave (bytes)
system.tol2bus.pkt_size_system.cpu08.icache.mem_side::system.l2.cpu_side        28480                       # Cumulative packet size per connected master and slave (bytes)
system.tol2bus.pkt_size_system.cpu08.dcache.mem_side::system.l2.cpu_side      7678656                       # Cumulative packet size per connected master and slave (bytes)
system.tol2bus.pkt_size_system.cpu09.icache.mem_side::system.l2.cpu_side        34432                       # Cumulative packet size per connected master and slave (bytes)
system.tol2bus.pkt_size_system.cpu09.dcache.mem_side::system.l2.cpu_side      6502784                       # Cumulative packet size per connected master and slave (bytes)
system.tol2bus.pkt_size_system.cpu10.icache.mem_side::system.l2.cpu_side        28544                       # Cumulative packet size per connected master and slave (bytes)
system.tol2bus.pkt_size_system.cpu10.dcache.mem_side::system.l2.cpu_side      6625920                       # Cumulative packet size per connected master and slave (bytes)
system.tol2bus.pkt_size_system.cpu11.icache.mem_side::system.l2.cpu_side        34496                       # Cumulative packet size per connected master and slave (bytes)
system.tol2bus.pkt_size_system.cpu11.dcache.mem_side::system.l2.cpu_side      6476672                       # Cumulative packet size per connected master and slave (bytes)
system.tol2bus.pkt_size_system.cpu12.icache.mem_side::system.l2.cpu_side        38080                       # Cumulative packet size per connected master and slave (bytes)
system.tol2bus.pkt_size_system.cpu12.dcache.mem_side::system.l2.cpu_side      7214336                       # Cumulative packet size per connected master and slave (bytes)
system.tol2bus.pkt_size_system.cpu13.icache.mem_side::system.l2.cpu_side        28480                       # Cumulative packet size per connected master and slave (bytes)
system.tol2bus.pkt_size_system.cpu13.dcache.mem_side::system.l2.cpu_side      6479232                       # Cumulative packet size per connected master and slave (bytes)
system.tol2bus.pkt_size_system.cpu14.icache.mem_side::system.l2.cpu_side        34944                       # Cumulative packet size per connected master and slave (bytes)
system.tol2bus.pkt_size_system.cpu14.dcache.mem_side::system.l2.cpu_side      6778688                       # Cumulative packet size per connected master and slave (bytes)
system.tol2bus.pkt_size_system.cpu15.icache.mem_side::system.l2.cpu_side        34752                       # Cumulative packet size per connected master and slave (bytes)
system.tol2bus.pkt_size_system.cpu15.dcache.mem_side::system.l2.cpu_side      6763200                       # Cumulative packet size per connected master and slave (bytes)
system.tol2bus.pkt_size::total              110292032                       # Cumulative packet size per connected master and slave (bytes)
system.tol2bus.snoops                          145593                       # Total snoops (count)
system.tol2bus.snoop_fanout::samples          1046455                       # Request fanout histogram
system.tol2bus.snoop_fanout::mean            0.076814                       # Request fanout histogram
system.tol2bus.snoop_fanout::stdev           0.840115                       # Request fanout histogram
system.tol2bus.snoop_fanout::underflows             0      0.00%      0.00% # Request fanout histogram
system.tol2bus.snoop_fanout::0                1029817     98.41%     98.41% # Request fanout histogram
system.tol2bus.snoop_fanout::1                   6621      0.63%     99.04% # Request fanout histogram
system.tol2bus.snoop_fanout::2                   1630      0.16%     99.20% # Request fanout histogram
system.tol2bus.snoop_fanout::3                   1077      0.10%     99.30% # Request fanout histogram
system.tol2bus.snoop_fanout::4                    840      0.08%     99.38% # Request fanout histogram
system.tol2bus.snoop_fanout::5                    793      0.08%     99.46% # Request fanout histogram
system.tol2bus.snoop_fanout::6                    678      0.06%     99.52% # Request fanout histogram
system.tol2bus.snoop_fanout::7                    592      0.06%     99.58% # Request fanout histogram
system.tol2bus.snoop_fanout::8                    576      0.06%     99.63% # Request fanout histogram
system.tol2bus.snoop_fanout::9                    549      0.05%     99.69% # Request fanout histogram
system.tol2bus.snoop_fanout::10                   490      0.05%     99.73% # Request fanout histogram
system.tol2bus.snoop_fanout::11                   491      0.05%     99.78% # Request fanout histogram
system.tol2bus.snoop_fanout::12                   472      0.05%     99.83% # Request fanout histogram
system.tol2bus.snoop_fanout::13                   457      0.04%     99.87% # Request fanout histogram
system.tol2bus.snoop_fanout::14                   478      0.05%     99.91% # Request fanout histogram
system.tol2bus.snoop_fanout::15                   718      0.07%     99.98% # Request fanout histogram
system.tol2bus.snoop_fanout::16                   176      0.02%    100.00% # Request fanout histogram
system.tol2bus.snoop_fanout::17                     0      0.00%    100.00% # Request fanout histogram
system.tol2bus.snoop_fanout::18                     0      0.00%    100.00% # Request fanout histogram
system.tol2bus.snoop_fanout::19                     0      0.00%    100.00% # Request fanout histogram
system.tol2bus.snoop_fanout::20                     0      0.00%    100.00% # Request fanout histogram
system.tol2bus.snoop_fanout::21                     0      0.00%    100.00% # Request fanout histogram
system.tol2bus.snoop_fanout::22                     0      0.00%    100.00% # Request fanout histogram
system.tol2bus.snoop_fanout::23                     0      0.00%    100.00% # Request fanout histogram
system.tol2bus.snoop_fanout::24                     0      0.00%    100.00% # Request fanout histogram
system.tol2bus.snoop_fanout::25                     0      0.00%    100.00% # Request fanout histogram
system.tol2bus.snoop_fanout::26                     0      0.00%    100.00% # Request fanout histogram
system.tol2bus.snoop_fanout::27                     0      0.00%    100.00% # Request fanout histogram
system.tol2bus.snoop_fanout::28                     0      0.00%    100.00% # Request fanout histogram
system.tol2bus.snoop_fanout::29                     0      0.00%    100.00% # Request fanout histogram
system.tol2bus.snoop_fanout::30                     0      0.00%    100.00% # Request fanout histogram
system.tol2bus.snoop_fanout::31                     0      0.00%    100.00% # Request fanout histogram
system.tol2bus.snoop_fanout::32                     0      0.00%    100.00% # Request fanout histogram
system.tol2bus.snoop_fanout::overflows              0      0.00%    100.00% # Request fanout histogram
system.tol2bus.snoop_fanout::min_value              0                       # Request fanout histogram
system.tol2bus.snoop_fanout::max_value             16                       # Request fanout histogram
system.tol2bus.snoop_fanout::total            1046455                       # Request fanout histogram
system.tol2bus.reqLayer0.occupancy         4016665583                       # Layer occupancy (ticks)
system.tol2bus.reqLayer0.utilization             39.3                       # Layer utilization (%)
system.tol2bus.respLayer0.occupancy          27057935                       # Layer occupancy (ticks)
system.tol2bus.respLayer0.utilization             0.3                       # Layer utilization (%)
system.tol2bus.respLayer1.occupancy         244273519                       # Layer occupancy (ticks)
system.tol2bus.respLayer1.utilization             2.4                       # Layer utilization (%)
system.tol2bus.respLayer2.occupancy           1690154                       # Layer occupancy (ticks)
system.tol2bus.respLayer2.utilization             0.0                       # Layer utilization (%)
system.tol2bus.respLayer3.occupancy         183185604                       # Layer occupancy (ticks)
system.tol2bus.respLayer3.utilization             1.8                       # Layer utilization (%)
system.tol2bus.respLayer4.occupancy           1476721                       # Layer occupancy (ticks)
system.tol2bus.respLayer4.utilization             0.0                       # Layer utilization (%)
system.tol2bus.respLayer5.occupancy         190234098                       # Layer occupancy (ticks)
system.tol2bus.respLayer5.utilization             1.9                       # Layer utilization (%)
system.tol2bus.respLayer6.occupancy           1612557                       # Layer occupancy (ticks)
system.tol2bus.respLayer6.utilization             0.0                       # Layer utilization (%)
system.tol2bus.respLayer7.occupancy         183563996                       # Layer occupancy (ticks)
system.tol2bus.respLayer7.utilization             1.8                       # Layer utilization (%)
system.tol2bus.respLayer8.occupancy           1415185                       # Layer occupancy (ticks)
system.tol2bus.respLayer8.utilization             0.0                       # Layer utilization (%)
system.tol2bus.respLayer9.occupancy         204925145                       # Layer occupancy (ticks)
system.tol2bus.respLayer9.utilization             2.0                       # Layer utilization (%)
system.tol2bus.respLayer10.occupancy          1606749                       # Layer occupancy (ticks)
system.tol2bus.respLayer10.utilization            0.0                       # Layer utilization (%)
system.tol2bus.respLayer11.occupancy        183663680                       # Layer occupancy (ticks)
system.tol2bus.respLayer11.utilization            1.8                       # Layer utilization (%)
system.tol2bus.respLayer12.occupancy          1416322                       # Layer occupancy (ticks)
system.tol2bus.respLayer12.utilization            0.0                       # Layer utilization (%)
system.tol2bus.respLayer13.occupancy        192777827                       # Layer occupancy (ticks)
system.tol2bus.respLayer13.utilization            1.9                       # Layer utilization (%)
system.tol2bus.respLayer14.occupancy          1605576                       # Layer occupancy (ticks)
system.tol2bus.respLayer14.utilization            0.0                       # Layer utilization (%)
system.tol2bus.respLayer15.occupancy        185628930                       # Layer occupancy (ticks)
system.tol2bus.respLayer15.utilization            1.8                       # Layer utilization (%)
system.tol2bus.respLayer16.occupancy          1405916                       # Layer occupancy (ticks)
system.tol2bus.respLayer16.utilization            0.0                       # Layer utilization (%)
system.tol2bus.respLayer17.occupancy        220376640                       # Layer occupancy (ticks)
system.tol2bus.respLayer17.utilization            2.2                       # Layer utilization (%)
system.tol2bus.respLayer18.occupancy          1606811                       # Layer occupancy (ticks)
system.tol2bus.respLayer18.utilization            0.0                       # Layer utilization (%)
system.tol2bus.respLayer19.occupancy        184998901                       # Layer occupancy (ticks)
system.tol2bus.respLayer19.utilization            1.8                       # Layer utilization (%)
system.tol2bus.respLayer20.occupancy          1415169                       # Layer occupancy (ticks)
system.tol2bus.respLayer20.utilization            0.0                       # Layer utilization (%)
system.tol2bus.respLayer21.occupancy        191198475                       # Layer occupancy (ticks)
system.tol2bus.respLayer21.utilization            1.9                       # Layer utilization (%)
system.tol2bus.respLayer22.occupancy          1613712                       # Layer occupancy (ticks)
system.tol2bus.respLayer22.utilization            0.0                       # Layer utilization (%)
system.tol2bus.respLayer23.occupancy        184589396                       # Layer occupancy (ticks)
system.tol2bus.respLayer23.utilization            1.8                       # Layer utilization (%)
system.tol2bus.respLayer24.occupancy          1737780                       # Layer occupancy (ticks)
system.tol2bus.respLayer24.utilization            0.0                       # Layer utilization (%)
system.tol2bus.respLayer25.occupancy        205938981                       # Layer occupancy (ticks)
system.tol2bus.respLayer25.utilization            2.0                       # Layer utilization (%)
system.tol2bus.respLayer26.occupancy          1412869                       # Layer occupancy (ticks)
system.tol2bus.respLayer26.utilization            0.0                       # Layer utilization (%)
system.tol2bus.respLayer27.occupancy        184381047                       # Layer occupancy (ticks)
system.tol2bus.respLayer27.utilization            1.8                       # Layer utilization (%)
system.tol2bus.respLayer28.occupancy          1629980                       # Layer occupancy (ticks)
system.tol2bus.respLayer28.utilization            0.0                       # Layer utilization (%)
system.tol2bus.respLayer29.occupancy        194421513                       # Layer occupancy (ticks)
system.tol2bus.respLayer29.utilization            1.9                       # Layer utilization (%)
system.tol2bus.respLayer30.occupancy          1617778                       # Layer occupancy (ticks)
system.tol2bus.respLayer30.utilization            0.0                       # Layer utilization (%)
system.tol2bus.respLayer31.occupancy        192053028                       # Layer occupancy (ticks)
system.tol2bus.respLayer31.utilization            1.9                       # Layer utilization (%)

---------- End Simulation Statistics   ----------
