
---------- Begin Simulation Statistics ----------
sim_seconds                                  0.001276                       # Number of seconds simulated
sim_ticks                                  1275997573                       # Number of ticks simulated
final_tick                                 1275997573                       # Number of ticks from beginning of simulation (restored from checkpoints and never reset)
sim_freq                                 1000000000000                       # Frequency of simulated ticks
host_inst_rate                                 224869                       # Simulator instruction rate (inst/s)
host_op_rate                                   224869                       # Simulator op (including micro ops) rate (op/s)
host_tick_rate                              130994705                       # Simulator tick rate (ticks/s)
host_mem_usage                                 694788                       # Number of bytes of host memory used
host_seconds                                     9.74                       # Real time elapsed on the host
sim_insts                                     2190404                       # Number of instructions simulated
sim_ops                                       2190404                       # Number of ops (including micro ops) simulated
system.voltage_domain.voltage                       1                       # Voltage in Volts
system.clk_domain.clock                          1000                       # Clock period in ticks
system.mem_ctrls.bytes_read::cpu00.inst        122368                       # Number of bytes read from this memory
system.mem_ctrls.bytes_read::cpu00.data        378240                       # Number of bytes read from this memory
system.mem_ctrls.bytes_read::cpu01.inst         11456                       # Number of bytes read from this memory
system.mem_ctrls.bytes_read::cpu01.data          6144                       # Number of bytes read from this memory
system.mem_ctrls.bytes_read::cpu02.inst          3328                       # Number of bytes read from this memory
system.mem_ctrls.bytes_read::cpu02.data          7104                       # Number of bytes read from this memory
system.mem_ctrls.bytes_read::cpu03.inst          1088                       # Number of bytes read from this memory
system.mem_ctrls.bytes_read::cpu03.data          6464                       # Number of bytes read from this memory
system.mem_ctrls.bytes_read::cpu04.inst          1856                       # Number of bytes read from this memory
system.mem_ctrls.bytes_read::cpu04.data          6720                       # Number of bytes read from this memory
system.mem_ctrls.bytes_read::cpu05.inst          2432                       # Number of bytes read from this memory
system.mem_ctrls.bytes_read::cpu05.data          5824                       # Number of bytes read from this memory
system.mem_ctrls.bytes_read::cpu06.inst           512                       # Number of bytes read from this memory
system.mem_ctrls.bytes_read::cpu06.data          6784                       # Number of bytes read from this memory
system.mem_ctrls.bytes_read::cpu07.inst           128                       # Number of bytes read from this memory
system.mem_ctrls.bytes_read::cpu07.data          4928                       # Number of bytes read from this memory
system.mem_ctrls.bytes_read::cpu08.inst          1600                       # Number of bytes read from this memory
system.mem_ctrls.bytes_read::cpu08.data          5440                       # Number of bytes read from this memory
system.mem_ctrls.bytes_read::cpu09.inst           640                       # Number of bytes read from this memory
system.mem_ctrls.bytes_read::cpu09.data          4608                       # Number of bytes read from this memory
system.mem_ctrls.bytes_read::cpu10.inst          3648                       # Number of bytes read from this memory
system.mem_ctrls.bytes_read::cpu10.data          5504                       # Number of bytes read from this memory
system.mem_ctrls.bytes_read::cpu11.inst          1536                       # Number of bytes read from this memory
system.mem_ctrls.bytes_read::cpu11.data          5952                       # Number of bytes read from this memory
system.mem_ctrls.bytes_read::cpu12.inst          1152                       # Number of bytes read from this memory
system.mem_ctrls.bytes_read::cpu12.data          6336                       # Number of bytes read from this memory
system.mem_ctrls.bytes_read::cpu13.inst           384                       # Number of bytes read from this memory
system.mem_ctrls.bytes_read::cpu13.data          5312                       # Number of bytes read from this memory
system.mem_ctrls.bytes_read::cpu14.inst           384                       # Number of bytes read from this memory
system.mem_ctrls.bytes_read::cpu14.data          6464                       # Number of bytes read from this memory
system.mem_ctrls.bytes_read::cpu15.inst           448                       # Number of bytes read from this memory
system.mem_ctrls.bytes_read::cpu15.data          4416                       # Number of bytes read from this memory
system.mem_ctrls.bytes_read::total             619200                       # Number of bytes read from this memory
system.mem_ctrls.bytes_inst_read::cpu00.inst       122368                       # Number of instructions bytes read from this memory
system.mem_ctrls.bytes_inst_read::cpu01.inst        11456                       # Number of instructions bytes read from this memory
system.mem_ctrls.bytes_inst_read::cpu02.inst         3328                       # Number of instructions bytes read from this memory
system.mem_ctrls.bytes_inst_read::cpu03.inst         1088                       # Number of instructions bytes read from this memory
system.mem_ctrls.bytes_inst_read::cpu04.inst         1856                       # Number of instructions bytes read from this memory
system.mem_ctrls.bytes_inst_read::cpu05.inst         2432                       # Number of instructions bytes read from this memory
system.mem_ctrls.bytes_inst_read::cpu06.inst          512                       # Number of instructions bytes read from this memory
system.mem_ctrls.bytes_inst_read::cpu07.inst          128                       # Number of instructions bytes read from this memory
system.mem_ctrls.bytes_inst_read::cpu08.inst         1600                       # Number of instructions bytes read from this memory
system.mem_ctrls.bytes_inst_read::cpu09.inst          640                       # Number of instructions bytes read from this memory
system.mem_ctrls.bytes_inst_read::cpu10.inst         3648                       # Number of instructions bytes read from this memory
system.mem_ctrls.bytes_inst_read::cpu11.inst         1536                       # Number of instructions bytes read from this memory
system.mem_ctrls.bytes_inst_read::cpu12.inst         1152                       # Number of instructions bytes read from this memory
system.mem_ctrls.bytes_inst_read::cpu13.inst          384                       # Number of instructions bytes read from this memory
system.mem_ctrls.bytes_inst_read::cpu14.inst          384                       # Number of instructions bytes read from this memory
system.mem_ctrls.bytes_inst_read::cpu15.inst          448                       # Number of instructions bytes read from this memory
system.mem_ctrls.bytes_inst_read::total        152960                       # Number of instructions bytes read from this memory
system.mem_ctrls.bytes_written::writebacks        74240                       # Number of bytes written to this memory
system.mem_ctrls.bytes_written::total           74240                       # Number of bytes written to this memory
system.mem_ctrls.num_reads::cpu00.inst           1912                       # Number of read requests responded to by this memory
system.mem_ctrls.num_reads::cpu00.data           5910                       # Number of read requests responded to by this memory
system.mem_ctrls.num_reads::cpu01.inst            179                       # Number of read requests responded to by this memory
system.mem_ctrls.num_reads::cpu01.data             96                       # Number of read requests responded to by this memory
system.mem_ctrls.num_reads::cpu02.inst             52                       # Number of read requests responded to by this memory
system.mem_ctrls.num_reads::cpu02.data            111                       # Number of read requests responded to by this memory
system.mem_ctrls.num_reads::cpu03.inst             17                       # Number of read requests responded to by this memory
system.mem_ctrls.num_reads::cpu03.data            101                       # Number of read requests responded to by this memory
system.mem_ctrls.num_reads::cpu04.inst             29                       # Number of read requests responded to by this memory
system.mem_ctrls.num_reads::cpu04.data            105                       # Number of read requests responded to by this memory
system.mem_ctrls.num_reads::cpu05.inst             38                       # Number of read requests responded to by this memory
system.mem_ctrls.num_reads::cpu05.data             91                       # Number of read requests responded to by this memory
system.mem_ctrls.num_reads::cpu06.inst              8                       # Number of read requests responded to by this memory
system.mem_ctrls.num_reads::cpu06.data            106                       # Number of read requests responded to by this memory
system.mem_ctrls.num_reads::cpu07.inst              2                       # Number of read requests responded to by this memory
system.mem_ctrls.num_reads::cpu07.data             77                       # Number of read requests responded to by this memory
system.mem_ctrls.num_reads::cpu08.inst             25                       # Number of read requests responded to by this memory
system.mem_ctrls.num_reads::cpu08.data             85                       # Number of read requests responded to by this memory
system.mem_ctrls.num_reads::cpu09.inst             10                       # Number of read requests responded to by this memory
system.mem_ctrls.num_reads::cpu09.data             72                       # Number of read requests responded to by this memory
system.mem_ctrls.num_reads::cpu10.inst             57                       # Number of read requests responded to by this memory
system.mem_ctrls.num_reads::cpu10.data             86                       # Number of read requests responded to by this memory
system.mem_ctrls.num_reads::cpu11.inst             24                       # Number of read requests responded to by this memory
system.mem_ctrls.num_reads::cpu11.data             93                       # Number of read requests responded to by this memory
system.mem_ctrls.num_reads::cpu12.inst             18                       # Number of read requests responded to by this memory
system.mem_ctrls.num_reads::cpu12.data             99                       # Number of read requests responded to by this memory
system.mem_ctrls.num_reads::cpu13.inst              6                       # Number of read requests responded to by this memory
system.mem_ctrls.num_reads::cpu13.data             83                       # Number of read requests responded to by this memory
system.mem_ctrls.num_reads::cpu14.inst              6                       # Number of read requests responded to by this memory
system.mem_ctrls.num_reads::cpu14.data            101                       # Number of read requests responded to by this memory
system.mem_ctrls.num_reads::cpu15.inst              7                       # Number of read requests responded to by this memory
system.mem_ctrls.num_reads::cpu15.data             69                       # Number of read requests responded to by this memory
system.mem_ctrls.num_reads::total                9675                       # Number of read requests responded to by this memory
system.mem_ctrls.num_writes::writebacks          1160                       # Number of write requests responded to by this memory
system.mem_ctrls.num_writes::total               1160                       # Number of write requests responded to by this memory
system.mem_ctrls.bw_read::cpu00.inst         95899869                       # Total read bandwidth from this memory (bytes/s)
system.mem_ctrls.bw_read::cpu00.data        296426896                       # Total read bandwidth from this memory (bytes/s)
system.mem_ctrls.bw_read::cpu01.inst          8978074                       # Total read bandwidth from this memory (bytes/s)
system.mem_ctrls.bw_read::cpu01.data          4815056                       # Total read bandwidth from this memory (bytes/s)
system.mem_ctrls.bw_read::cpu02.inst          2608155                       # Total read bandwidth from this memory (bytes/s)
system.mem_ctrls.bw_read::cpu02.data          5567409                       # Total read bandwidth from this memory (bytes/s)
system.mem_ctrls.bw_read::cpu03.inst           852666                       # Total read bandwidth from this memory (bytes/s)
system.mem_ctrls.bw_read::cpu03.data          5065840                       # Total read bandwidth from this memory (bytes/s)
system.mem_ctrls.bw_read::cpu04.inst          1454548                       # Total read bandwidth from this memory (bytes/s)
system.mem_ctrls.bw_read::cpu04.data          5266468                       # Total read bandwidth from this memory (bytes/s)
system.mem_ctrls.bw_read::cpu05.inst          1905960                       # Total read bandwidth from this memory (bytes/s)
system.mem_ctrls.bw_read::cpu05.data          4564272                       # Total read bandwidth from this memory (bytes/s)
system.mem_ctrls.bw_read::cpu06.inst           401255                       # Total read bandwidth from this memory (bytes/s)
system.mem_ctrls.bw_read::cpu06.data          5316625                       # Total read bandwidth from this memory (bytes/s)
system.mem_ctrls.bw_read::cpu07.inst           100314                       # Total read bandwidth from this memory (bytes/s)
system.mem_ctrls.bw_read::cpu07.data          3862076                       # Total read bandwidth from this memory (bytes/s)
system.mem_ctrls.bw_read::cpu08.inst          1253921                       # Total read bandwidth from this memory (bytes/s)
system.mem_ctrls.bw_read::cpu08.data          4263331                       # Total read bandwidth from this memory (bytes/s)
system.mem_ctrls.bw_read::cpu09.inst           501568                       # Total read bandwidth from this memory (bytes/s)
system.mem_ctrls.bw_read::cpu09.data          3611292                       # Total read bandwidth from this memory (bytes/s)
system.mem_ctrls.bw_read::cpu10.inst          2858940                       # Total read bandwidth from this memory (bytes/s)
system.mem_ctrls.bw_read::cpu10.data          4313488                       # Total read bandwidth from this memory (bytes/s)
system.mem_ctrls.bw_read::cpu11.inst          1203764                       # Total read bandwidth from this memory (bytes/s)
system.mem_ctrls.bw_read::cpu11.data          4664586                       # Total read bandwidth from this memory (bytes/s)
system.mem_ctrls.bw_read::cpu12.inst           902823                       # Total read bandwidth from this memory (bytes/s)
system.mem_ctrls.bw_read::cpu12.data          4965527                       # Total read bandwidth from this memory (bytes/s)
system.mem_ctrls.bw_read::cpu13.inst           300941                       # Total read bandwidth from this memory (bytes/s)
system.mem_ctrls.bw_read::cpu13.data          4163017                       # Total read bandwidth from this memory (bytes/s)
system.mem_ctrls.bw_read::cpu14.inst           300941                       # Total read bandwidth from this memory (bytes/s)
system.mem_ctrls.bw_read::cpu14.data          5065840                       # Total read bandwidth from this memory (bytes/s)
system.mem_ctrls.bw_read::cpu15.inst           351098                       # Total read bandwidth from this memory (bytes/s)
system.mem_ctrls.bw_read::cpu15.data          3460822                       # Total read bandwidth from this memory (bytes/s)
system.mem_ctrls.bw_read::total             485267381                       # Total read bandwidth from this memory (bytes/s)
system.mem_ctrls.bw_inst_read::cpu00.inst     95899869                       # Instruction read bandwidth from this memory (bytes/s)
system.mem_ctrls.bw_inst_read::cpu01.inst      8978074                       # Instruction read bandwidth from this memory (bytes/s)
system.mem_ctrls.bw_inst_read::cpu02.inst      2608155                       # Instruction read bandwidth from this memory (bytes/s)
system.mem_ctrls.bw_inst_read::cpu03.inst       852666                       # Instruction read bandwidth from this memory (bytes/s)
system.mem_ctrls.bw_inst_read::cpu04.inst      1454548                       # Instruction read bandwidth from this memory (bytes/s)
system.mem_ctrls.bw_inst_read::cpu05.inst      1905960                       # Instruction read bandwidth from this memory (bytes/s)
system.mem_ctrls.bw_inst_read::cpu06.inst       401255                       # Instruction read bandwidth from this memory (bytes/s)
system.mem_ctrls.bw_inst_read::cpu07.inst       100314                       # Instruction read bandwidth from this memory (bytes/s)
system.mem_ctrls.bw_inst_read::cpu08.inst      1253921                       # Instruction read bandwidth from this memory (bytes/s)
system.mem_ctrls.bw_inst_read::cpu09.inst       501568                       # Instruction read bandwidth from this memory (bytes/s)
system.mem_ctrls.bw_inst_read::cpu10.inst      2858940                       # Instruction read bandwidth from this memory (bytes/s)
system.mem_ctrls.bw_inst_read::cpu11.inst      1203764                       # Instruction read bandwidth from this memory (bytes/s)
system.mem_ctrls.bw_inst_read::cpu12.inst       902823                       # Instruction read bandwidth from this memory (bytes/s)
system.mem_ctrls.bw_inst_read::cpu13.inst       300941                       # Instruction read bandwidth from this memory (bytes/s)
system.mem_ctrls.bw_inst_read::cpu14.inst       300941                       # Instruction read bandwidth from this memory (bytes/s)
system.mem_ctrls.bw_inst_read::cpu15.inst       351098                       # Instruction read bandwidth from this memory (bytes/s)
system.mem_ctrls.bw_inst_read::total        119874836                       # Instruction read bandwidth from this memory (bytes/s)
system.mem_ctrls.bw_write::writebacks        58181929                       # Write bandwidth from this memory (bytes/s)
system.mem_ctrls.bw_write::total             58181929                       # Write bandwidth from this memory (bytes/s)
system.mem_ctrls.bw_total::writebacks        58181929                       # Total bandwidth to/from this memory (bytes/s)
system.mem_ctrls.bw_total::cpu00.inst        95899869                       # Total bandwidth to/from this memory (bytes/s)
system.mem_ctrls.bw_total::cpu00.data       296426896                       # Total bandwidth to/from this memory (bytes/s)
system.mem_ctrls.bw_total::cpu01.inst         8978074                       # Total bandwidth to/from this memory (bytes/s)
system.mem_ctrls.bw_total::cpu01.data         4815056                       # Total bandwidth to/from this memory (bytes/s)
system.mem_ctrls.bw_total::cpu02.inst         2608155                       # Total bandwidth to/from this memory (bytes/s)
system.mem_ctrls.bw_total::cpu02.data         5567409                       # Total bandwidth to/from this memory (bytes/s)
system.mem_ctrls.bw_total::cpu03.inst          852666                       # Total bandwidth to/from this memory (bytes/s)
system.mem_ctrls.bw_total::cpu03.data         5065840                       # Total bandwidth to/from this memory (bytes/s)
system.mem_ctrls.bw_total::cpu04.inst         1454548                       # Total bandwidth to/from this memory (bytes/s)
system.mem_ctrls.bw_total::cpu04.data         5266468                       # Total bandwidth to/from this memory (bytes/s)
system.mem_ctrls.bw_total::cpu05.inst         1905960                       # Total bandwidth to/from this memory (bytes/s)
system.mem_ctrls.bw_total::cpu05.data         4564272                       # Total bandwidth to/from this memory (bytes/s)
system.mem_ctrls.bw_total::cpu06.inst          401255                       # Total bandwidth to/from this memory (bytes/s)
system.mem_ctrls.bw_total::cpu06.data         5316625                       # Total bandwidth to/from this memory (bytes/s)
system.mem_ctrls.bw_total::cpu07.inst          100314                       # Total bandwidth to/from this memory (bytes/s)
system.mem_ctrls.bw_total::cpu07.data         3862076                       # Total bandwidth to/from this memory (bytes/s)
system.mem_ctrls.bw_total::cpu08.inst         1253921                       # Total bandwidth to/from this memory (bytes/s)
system.mem_ctrls.bw_total::cpu08.data         4263331                       # Total bandwidth to/from this memory (bytes/s)
system.mem_ctrls.bw_total::cpu09.inst          501568                       # Total bandwidth to/from this memory (bytes/s)
system.mem_ctrls.bw_total::cpu09.data         3611292                       # Total bandwidth to/from this memory (bytes/s)
system.mem_ctrls.bw_total::cpu10.inst         2858940                       # Total bandwidth to/from this memory (bytes/s)
system.mem_ctrls.bw_total::cpu10.data         4313488                       # Total bandwidth to/from this memory (bytes/s)
system.mem_ctrls.bw_total::cpu11.inst         1203764                       # Total bandwidth to/from this memory (bytes/s)
system.mem_ctrls.bw_total::cpu11.data         4664586                       # Total bandwidth to/from this memory (bytes/s)
system.mem_ctrls.bw_total::cpu12.inst          902823                       # Total bandwidth to/from this memory (bytes/s)
system.mem_ctrls.bw_total::cpu12.data         4965527                       # Total bandwidth to/from this memory (bytes/s)
system.mem_ctrls.bw_total::cpu13.inst          300941                       # Total bandwidth to/from this memory (bytes/s)
system.mem_ctrls.bw_total::cpu13.data         4163017                       # Total bandwidth to/from this memory (bytes/s)
system.mem_ctrls.bw_total::cpu14.inst          300941                       # Total bandwidth to/from this memory (bytes/s)
system.mem_ctrls.bw_total::cpu14.data         5065840                       # Total bandwidth to/from this memory (bytes/s)
system.mem_ctrls.bw_total::cpu15.inst          351098                       # Total bandwidth to/from this memory (bytes/s)
system.mem_ctrls.bw_total::cpu15.data         3460822                       # Total bandwidth to/from this memory (bytes/s)
system.mem_ctrls.bw_total::total            543449310                       # Total bandwidth to/from this memory (bytes/s)
system.cpu00.branchPred.lookups                132281                       # Number of BP lookups
system.cpu00.branchPred.condPredicted           73658                       # Number of conditional branches predicted
system.cpu00.branchPred.condIncorrect            5695                       # Number of conditional branches incorrect
system.cpu00.branchPred.BTBLookups              87994                       # Number of BTB lookups
system.cpu00.branchPred.BTBHits                 66332                       # Number of BTB hits
system.cpu00.branchPred.BTBCorrect                  0                       # Number of correct BTB predictions (this stat may not work properly.
system.cpu00.branchPred.BTBHitPct           75.382412                       # BTB Hit Percentage
system.cpu00.branchPred.usedRAS                 26423                       # Number of times the RAS was used to get a target.
system.cpu00.branchPred.RASInCorrect               89                       # Number of incorrect RAS predictions.
system.cpu00.branchPred.indirectLookups          3665                       # Number of indirect predictor lookups.
system.cpu00.branchPred.indirectHits             2899                       # Number of indirect target hits.
system.cpu00.branchPred.indirectMisses            766                       # Number of indirect misses.
system.cpu00.branchPredindirectMispredicted          256                       # Number of mispredicted indirect branches.
system.cpu_voltage_domain.voltage                   1                       # Voltage in Volts
system.cpu_clk_domain.clock                      1159                       # Clock period in ticks
system.cpu00.dtb.fetch_hits                         0                       # ITB hits
system.cpu00.dtb.fetch_misses                       0                       # ITB misses
system.cpu00.dtb.fetch_acv                          0                       # ITB acv
system.cpu00.dtb.fetch_accesses                     0                       # ITB accesses
system.cpu00.dtb.read_hits                     182069                       # DTB read hits
system.cpu00.dtb.read_misses                      618                       # DTB read misses
system.cpu00.dtb.read_acv                           0                       # DTB read access violations
system.cpu00.dtb.read_accesses                 182687                       # DTB read accesses
system.cpu00.dtb.write_hits                    127763                       # DTB write hits
system.cpu00.dtb.write_misses                    1101                       # DTB write misses
system.cpu00.dtb.write_acv                          0                       # DTB write access violations
system.cpu00.dtb.write_accesses                128864                       # DTB write accesses
system.cpu00.dtb.data_hits                     309832                       # DTB hits
system.cpu00.dtb.data_misses                     1719                       # DTB misses
system.cpu00.dtb.data_acv                           0                       # DTB access violations
system.cpu00.dtb.data_accesses                 311551                       # DTB accesses
system.cpu00.itb.fetch_hits                    149033                       # ITB hits
system.cpu00.itb.fetch_misses                     156                       # ITB misses
system.cpu00.itb.fetch_acv                          0                       # ITB acv
system.cpu00.itb.fetch_accesses                149189                       # ITB accesses
system.cpu00.itb.read_hits                          0                       # DTB read hits
system.cpu00.itb.read_misses                        0                       # DTB read misses
system.cpu00.itb.read_acv                           0                       # DTB read access violations
system.cpu00.itb.read_accesses                      0                       # DTB read accesses
system.cpu00.itb.write_hits                         0                       # DTB write hits
system.cpu00.itb.write_misses                       0                       # DTB write misses
system.cpu00.itb.write_acv                          0                       # DTB write access violations
system.cpu00.itb.write_accesses                     0                       # DTB write accesses
system.cpu00.itb.data_hits                          0                       # DTB hits
system.cpu00.itb.data_misses                        0                       # DTB misses
system.cpu00.itb.data_acv                           0                       # DTB access violations
system.cpu00.itb.data_accesses                      0                       # DTB accesses
system.cpu00.workload.num_syscalls               2095                       # Number of system calls
system.cpu00.numCycles                        1029909                       # number of cpu cycles simulated
system.cpu00.numWorkItemsStarted                    0                       # number of work items this cpu started
system.cpu00.numWorkItemsCompleted                  0                       # number of work items this cpu completed
system.cpu00.fetch.icacheStallCycles            82953                       # Number of cycles fetch is stalled on an Icache miss
system.cpu00.fetch.Insts                      1188421                       # Number of instructions fetch has processed
system.cpu00.fetch.Branches                    132281                       # Number of branches that fetch encountered
system.cpu00.fetch.predictedBranches            95654                       # Number of branches that fetch has predicted taken
system.cpu00.fetch.Cycles                      726879                       # Number of cycles fetch has run and was not squashing or blocked
system.cpu00.fetch.SquashCycles                 12764                       # Number of cycles fetch has spent squashing
system.cpu00.fetch.MiscStallCycles                749                       # Number of cycles fetch has spent waiting on interrupts, or bad addresses, or out of MSHRs
system.cpu00.fetch.PendingTrapStallCycles         6228                       # Number of stall cycles due to pending traps
system.cpu00.fetch.IcacheWaitRetryStallCycles          649                       # Number of stall cycles due to full MSHR
system.cpu00.fetch.CacheLines                  149033                       # Number of cache lines fetched
system.cpu00.fetch.IcacheSquashes                2600                       # Number of outstanding Icache misses that were squashed
system.cpu00.fetch.rateDist::samples           823840                       # Number of instructions fetched each cycle (Total)
system.cpu00.fetch.rateDist::mean            1.442539                       # Number of instructions fetched each cycle (Total)
system.cpu00.fetch.rateDist::stdev           2.712910                       # Number of instructions fetched each cycle (Total)
system.cpu00.fetch.rateDist::underflows             0      0.00%      0.00% # Number of instructions fetched each cycle (Total)
system.cpu00.fetch.rateDist::0                 606163     73.58%     73.58% # Number of instructions fetched each cycle (Total)
system.cpu00.fetch.rateDist::1                  16361      1.99%     75.56% # Number of instructions fetched each cycle (Total)
system.cpu00.fetch.rateDist::2                  17501      2.12%     77.69% # Number of instructions fetched each cycle (Total)
system.cpu00.fetch.rateDist::3                  17022      2.07%     79.75% # Number of instructions fetched each cycle (Total)
system.cpu00.fetch.rateDist::4                  38059      4.62%     84.37% # Number of instructions fetched each cycle (Total)
system.cpu00.fetch.rateDist::5                  15710      1.91%     86.28% # Number of instructions fetched each cycle (Total)
system.cpu00.fetch.rateDist::6                  18849      2.29%     88.57% # Number of instructions fetched each cycle (Total)
system.cpu00.fetch.rateDist::7                  11288      1.37%     89.94% # Number of instructions fetched each cycle (Total)
system.cpu00.fetch.rateDist::8                  82887     10.06%    100.00% # Number of instructions fetched each cycle (Total)
system.cpu00.fetch.rateDist::overflows              0      0.00%    100.00% # Number of instructions fetched each cycle (Total)
system.cpu00.fetch.rateDist::min_value              0                       # Number of instructions fetched each cycle (Total)
system.cpu00.fetch.rateDist::max_value              8                       # Number of instructions fetched each cycle (Total)
system.cpu00.fetch.rateDist::total             823840                       # Number of instructions fetched each cycle (Total)
system.cpu00.fetch.branchRate                0.128440                       # Number of branch fetches per cycle
system.cpu00.fetch.rate                      1.153909                       # Number of inst fetches per cycle
system.cpu00.decode.IdleCycles                  90445                       # Number of cycles decode is idle
system.cpu00.decode.BlockedCycles              566404                       # Number of cycles decode is blocked
system.cpu00.decode.RunCycles                  128892                       # Number of cycles decode is running
system.cpu00.decode.UnblockCycles               33449                       # Number of cycles decode is unblocking
system.cpu00.decode.SquashCycles                 4650                       # Number of cycles decode is squashing
system.cpu00.decode.BranchResolved              26392                       # Number of times decode resolved a branch
system.cpu00.decode.BranchMispred                1762                       # Number of times decode detected a branch misprediction
system.cpu00.decode.DecodedInsts              1123604                       # Number of instructions handled by decode
system.cpu00.decode.SquashedInsts                7215                       # Number of squashed instructions handled by decode
system.cpu00.rename.SquashCycles                 4650                       # Number of cycles rename is squashing
system.cpu00.rename.IdleCycles                 106293                       # Number of cycles rename is idle
system.cpu00.rename.BlockCycles                 91377                       # Number of cycles rename is blocking
system.cpu00.rename.serializeStallCycles       220269                       # count of cycles rename stalled for serializing inst
system.cpu00.rename.RunCycles                  146593                       # Number of cycles rename is running
system.cpu00.rename.UnblockCycles              254658                       # Number of cycles rename is unblocking
system.cpu00.rename.RenamedInsts              1104601                       # Number of instructions processed by rename
system.cpu00.rename.ROBFullEvents                2827                       # Number of times rename has blocked due to ROB full
system.cpu00.rename.IQFullEvents                22656                       # Number of times rename has blocked due to IQ full
system.cpu00.rename.LQFullEvents                 2283                       # Number of times rename has blocked due to LQ full
system.cpu00.rename.SQFullEvents               219152                       # Number of times rename has blocked due to SQ full
system.cpu00.rename.RenamedOperands            757279                       # Number of destination operands rename has renamed
system.cpu00.rename.RenameLookups             1368183                       # Number of register rename lookups that rename has made
system.cpu00.rename.int_rename_lookups        1210032                       # Number of integer rename lookups
system.cpu00.rename.fp_rename_lookups          155864                       # Number of floating rename lookups
system.cpu00.rename.CommittedMaps              668717                       # Number of HB maps that are committed
system.cpu00.rename.UndoneMaps                  88562                       # Number of HB maps that are undone due to squashing
system.cpu00.rename.serializingInsts             4042                       # count of serializing insts renamed
system.cpu00.rename.tempSerializingInsts         1664                       # count of temporary serializing insts renamed
system.cpu00.rename.skidInsts                  149477                       # count of insts added to the skid buffer
system.cpu00.memDep0.insertedLoads             179505                       # Number of loads inserted to the mem dependence unit.
system.cpu00.memDep0.insertedStores            135247                       # Number of stores inserted to the mem dependence unit.
system.cpu00.memDep0.conflictingLoads           32029                       # Number of conflicting loads.
system.cpu00.memDep0.conflictingStores          12295                       # Number of conflicting stores.
system.cpu00.iq.iqInstsAdded                   967897                       # Number of instructions added to the IQ (excludes non-spec)
system.cpu00.iq.iqNonSpecInstsAdded              2728                       # Number of non-speculative instructions added to the IQ
system.cpu00.iq.iqInstsIssued                  952498                       # Number of instructions issued
system.cpu00.iq.iqSquashedInstsIssued            1712                       # Number of squashed instructions issued
system.cpu00.iq.iqSquashedInstsExamined        100902                       # Number of squashed instructions iterated over during squash; mainly for profiling
system.cpu00.iq.iqSquashedOperandsExamined        51303                       # Number of squashed operands that are examined and possibly removed from graph
system.cpu00.iq.iqSquashedNonSpecRemoved          363                       # Number of squashed non-spec instructions that were removed
system.cpu00.iq.issued_per_cycle::samples       823840                       # Number of insts issued each cycle
system.cpu00.iq.issued_per_cycle::mean       1.156169                       # Number of insts issued each cycle
system.cpu00.iq.issued_per_cycle::stdev      1.925317                       # Number of insts issued each cycle
system.cpu00.iq.issued_per_cycle::underflows            0      0.00%      0.00% # Number of insts issued each cycle
system.cpu00.iq.issued_per_cycle::0            524722     63.69%     63.69% # Number of insts issued each cycle
system.cpu00.iq.issued_per_cycle::1             74466      9.04%     72.73% # Number of insts issued each cycle
system.cpu00.iq.issued_per_cycle::2             61029      7.41%     80.14% # Number of insts issued each cycle
system.cpu00.iq.issued_per_cycle::3             45512      5.52%     85.66% # Number of insts issued each cycle
system.cpu00.iq.issued_per_cycle::4             43730      5.31%     90.97% # Number of insts issued each cycle
system.cpu00.iq.issued_per_cycle::5             28577      3.47%     94.44% # Number of insts issued each cycle
system.cpu00.iq.issued_per_cycle::6             26663      3.24%     97.68% # Number of insts issued each cycle
system.cpu00.iq.issued_per_cycle::7             11473      1.39%     99.07% # Number of insts issued each cycle
system.cpu00.iq.issued_per_cycle::8              7668      0.93%    100.00% # Number of insts issued each cycle
system.cpu00.iq.issued_per_cycle::overflows            0      0.00%    100.00% # Number of insts issued each cycle
system.cpu00.iq.issued_per_cycle::min_value            0                       # Number of insts issued each cycle
system.cpu00.iq.issued_per_cycle::max_value            8                       # Number of insts issued each cycle
system.cpu00.iq.issued_per_cycle::total        823840                       # Number of insts issued each cycle
system.cpu00.iq.fu_full::No_OpClass                 0      0.00%      0.00% # attempts to use FU when none available
system.cpu00.iq.fu_full::IntAlu                  4966     16.00%     16.00% # attempts to use FU when none available
system.cpu00.iq.fu_full::IntMult                 4097     13.20%     29.21% # attempts to use FU when none available
system.cpu00.iq.fu_full::IntDiv                     0      0.00%     29.21% # attempts to use FU when none available
system.cpu00.iq.fu_full::FloatAdd                  67      0.22%     29.42% # attempts to use FU when none available
system.cpu00.iq.fu_full::FloatCmp                   0      0.00%     29.42% # attempts to use FU when none available
system.cpu00.iq.fu_full::FloatCvt                   0      0.00%     29.42% # attempts to use FU when none available
system.cpu00.iq.fu_full::FloatMult               5869     18.91%     48.34% # attempts to use FU when none available
system.cpu00.iq.fu_full::FloatDiv                   0      0.00%     48.34% # attempts to use FU when none available
system.cpu00.iq.fu_full::FloatSqrt                  0      0.00%     48.34% # attempts to use FU when none available
system.cpu00.iq.fu_full::SimdAdd                    0      0.00%     48.34% # attempts to use FU when none available
system.cpu00.iq.fu_full::SimdAddAcc                 0      0.00%     48.34% # attempts to use FU when none available
system.cpu00.iq.fu_full::SimdAlu                    0      0.00%     48.34% # attempts to use FU when none available
system.cpu00.iq.fu_full::SimdCmp                    0      0.00%     48.34% # attempts to use FU when none available
system.cpu00.iq.fu_full::SimdCvt                    0      0.00%     48.34% # attempts to use FU when none available
system.cpu00.iq.fu_full::SimdMisc                   0      0.00%     48.34% # attempts to use FU when none available
system.cpu00.iq.fu_full::SimdMult                   0      0.00%     48.34% # attempts to use FU when none available
system.cpu00.iq.fu_full::SimdMultAcc                0      0.00%     48.34% # attempts to use FU when none available
system.cpu00.iq.fu_full::SimdShift                  0      0.00%     48.34% # attempts to use FU when none available
system.cpu00.iq.fu_full::SimdShiftAcc               0      0.00%     48.34% # attempts to use FU when none available
system.cpu00.iq.fu_full::SimdSqrt                   0      0.00%     48.34% # attempts to use FU when none available
system.cpu00.iq.fu_full::SimdFloatAdd               0      0.00%     48.34% # attempts to use FU when none available
system.cpu00.iq.fu_full::SimdFloatAlu               0      0.00%     48.34% # attempts to use FU when none available
system.cpu00.iq.fu_full::SimdFloatCmp               0      0.00%     48.34% # attempts to use FU when none available
system.cpu00.iq.fu_full::SimdFloatCvt               0      0.00%     48.34% # attempts to use FU when none available
system.cpu00.iq.fu_full::SimdFloatDiv               0      0.00%     48.34% # attempts to use FU when none available
system.cpu00.iq.fu_full::SimdFloatMisc              0      0.00%     48.34% # attempts to use FU when none available
system.cpu00.iq.fu_full::SimdFloatMult              0      0.00%     48.34% # attempts to use FU when none available
system.cpu00.iq.fu_full::SimdFloatMultAcc            0      0.00%     48.34% # attempts to use FU when none available
system.cpu00.iq.fu_full::SimdFloatSqrt              0      0.00%     48.34% # attempts to use FU when none available
system.cpu00.iq.fu_full::MemRead                 9793     31.56%     79.90% # attempts to use FU when none available
system.cpu00.iq.fu_full::MemWrite                6237     20.10%    100.00% # attempts to use FU when none available
system.cpu00.iq.fu_full::IprAccess                  0      0.00%    100.00% # attempts to use FU when none available
system.cpu00.iq.fu_full::InstPrefetch               0      0.00%    100.00% # attempts to use FU when none available
system.cpu00.iq.FU_type_0::No_OpClass               0      0.00%      0.00% # Type of FU issued
system.cpu00.iq.FU_type_0::IntAlu              550548     57.80%     57.80% # Type of FU issued
system.cpu00.iq.FU_type_0::IntMult              12790      1.34%     59.14% # Type of FU issued
system.cpu00.iq.FU_type_0::IntDiv                   0      0.00%     59.14% # Type of FU issued
system.cpu00.iq.FU_type_0::FloatAdd             35718      3.75%     62.89% # Type of FU issued
system.cpu00.iq.FU_type_0::FloatCmp                 8      0.00%     62.89% # Type of FU issued
system.cpu00.iq.FU_type_0::FloatCvt                 0      0.00%     62.89% # Type of FU issued
system.cpu00.iq.FU_type_0::FloatMult            37109      3.90%     66.79% # Type of FU issued
system.cpu00.iq.FU_type_0::FloatDiv                16      0.00%     66.79% # Type of FU issued
system.cpu00.iq.FU_type_0::FloatSqrt                0      0.00%     66.79% # Type of FU issued
system.cpu00.iq.FU_type_0::SimdAdd                  0      0.00%     66.79% # Type of FU issued
system.cpu00.iq.FU_type_0::SimdAddAcc               0      0.00%     66.79% # Type of FU issued
system.cpu00.iq.FU_type_0::SimdAlu                  0      0.00%     66.79% # Type of FU issued
system.cpu00.iq.FU_type_0::SimdCmp                  0      0.00%     66.79% # Type of FU issued
system.cpu00.iq.FU_type_0::SimdCvt                  0      0.00%     66.79% # Type of FU issued
system.cpu00.iq.FU_type_0::SimdMisc                 0      0.00%     66.79% # Type of FU issued
system.cpu00.iq.FU_type_0::SimdMult                 0      0.00%     66.79% # Type of FU issued
system.cpu00.iq.FU_type_0::SimdMultAcc              0      0.00%     66.79% # Type of FU issued
system.cpu00.iq.FU_type_0::SimdShift                0      0.00%     66.79% # Type of FU issued
system.cpu00.iq.FU_type_0::SimdShiftAcc             0      0.00%     66.79% # Type of FU issued
system.cpu00.iq.FU_type_0::SimdSqrt                 0      0.00%     66.79% # Type of FU issued
system.cpu00.iq.FU_type_0::SimdFloatAdd             0      0.00%     66.79% # Type of FU issued
system.cpu00.iq.FU_type_0::SimdFloatAlu             0      0.00%     66.79% # Type of FU issued
system.cpu00.iq.FU_type_0::SimdFloatCmp             0      0.00%     66.79% # Type of FU issued
system.cpu00.iq.FU_type_0::SimdFloatCvt             0      0.00%     66.79% # Type of FU issued
system.cpu00.iq.FU_type_0::SimdFloatDiv             0      0.00%     66.79% # Type of FU issued
system.cpu00.iq.FU_type_0::SimdFloatMisc            0      0.00%     66.79% # Type of FU issued
system.cpu00.iq.FU_type_0::SimdFloatMult            0      0.00%     66.79% # Type of FU issued
system.cpu00.iq.FU_type_0::SimdFloatMultAcc            0      0.00%     66.79% # Type of FU issued
system.cpu00.iq.FU_type_0::SimdFloatSqrt            0      0.00%     66.79% # Type of FU issued
system.cpu00.iq.FU_type_0::MemRead             185932     19.52%     86.31% # Type of FU issued
system.cpu00.iq.FU_type_0::MemWrite            130377     13.69%    100.00% # Type of FU issued
system.cpu00.iq.FU_type_0::IprAccess                0      0.00%    100.00% # Type of FU issued
system.cpu00.iq.FU_type_0::InstPrefetch             0      0.00%    100.00% # Type of FU issued
system.cpu00.iq.FU_type_0::total               952498                       # Type of FU issued
system.cpu00.iq.rate                         0.924837                       # Inst issue rate
system.cpu00.iq.fu_busy_cnt                     31029                       # FU busy when requested
system.cpu00.iq.fu_busy_rate                 0.032576                       # FU busy rate (busy events/executed inst)
system.cpu00.iq.int_inst_queue_reads          2517914                       # Number of integer instruction queue reads
system.cpu00.iq.int_inst_queue_writes          948570                       # Number of integer instruction queue writes
system.cpu00.iq.int_inst_queue_wakeup_accesses       813016                       # Number of integer instruction queue wakeup accesses
system.cpu00.iq.fp_inst_queue_reads            243663                       # Number of floating instruction queue reads
system.cpu00.iq.fp_inst_queue_writes           123380                       # Number of floating instruction queue writes
system.cpu00.iq.fp_inst_queue_wakeup_accesses       116990                       # Number of floating instruction queue wakeup accesses
system.cpu00.iq.int_alu_accesses               858368                       # Number of integer alu accesses
system.cpu00.iq.fp_alu_accesses                125159                       # Number of floating point alu accesses
system.cpu00.iew.lsq.thread0.forwLoads          21344                       # Number of loads that had data forwarded from stores
system.cpu00.iew.lsq.thread0.invAddrLoads            0                       # Number of loads ignored due to an invalid address
system.cpu00.iew.lsq.thread0.squashedLoads        18566                       # Number of loads squashed
system.cpu00.iew.lsq.thread0.ignoredResponses          103                       # Number of memory responses ignored because the instruction is squashed
system.cpu00.iew.lsq.thread0.memOrderViolation          433                       # Number of memory ordering violations
system.cpu00.iew.lsq.thread0.squashedStores        15735                       # Number of stores squashed
system.cpu00.iew.lsq.thread0.invAddrSwpfs            0                       # Number of software prefetches ignored due to an invalid address
system.cpu00.iew.lsq.thread0.blockedLoads            0                       # Number of blocked loads due to partial load-store forwarding
system.cpu00.iew.lsq.thread0.rescheduledLoads          217                       # Number of loads that were rescheduled
system.cpu00.iew.lsq.thread0.cacheBlocked        11344                       # Number of times an access to memory failed due to the cache being blocked
system.cpu00.iew.iewIdleCycles                      0                       # Number of cycles IEW is idle
system.cpu00.iew.iewSquashCycles                 4650                       # Number of cycles IEW is squashing
system.cpu00.iew.iewBlockCycles                 22799                       # Number of cycles IEW is blocking
system.cpu00.iew.iewUnblockCycles               59213                       # Number of cycles IEW is unblocking
system.cpu00.iew.iewDispatchedInsts           1078158                       # Number of instructions dispatched to IQ
system.cpu00.iew.iewDispSquashedInsts            1453                       # Number of squashed instructions skipped by dispatch
system.cpu00.iew.iewDispLoadInsts              179505                       # Number of dispatched load instructions
system.cpu00.iew.iewDispStoreInsts             135247                       # Number of dispatched store instructions
system.cpu00.iew.iewDispNonSpecInsts             1567                       # Number of dispatched non-speculative instructions
system.cpu00.iew.iewIQFullEvents                  135                       # Number of times the IQ has become full, causing a stall
system.cpu00.iew.iewLSQFullEvents               58970                       # Number of times the LSQ has become full, causing a stall
system.cpu00.iew.memOrderViolationEvents          433                       # Number of memory order violations
system.cpu00.iew.predictedTakenIncorrect         1599                       # Number of branches that were predicted taken incorrectly
system.cpu00.iew.predictedNotTakenIncorrect         3105                       # Number of branches that were predicted not taken incorrectly
system.cpu00.iew.branchMispredicts               4704                       # Number of branch mispredicts detected at execute
system.cpu00.iew.iewExecutedInsts              945040                       # Number of executed instructions
system.cpu00.iew.iewExecLoadInsts              182707                       # Number of load instructions executed
system.cpu00.iew.iewExecSquashedInsts            7458                       # Number of squashed instructions skipped in execute
system.cpu00.iew.exec_swp                           0                       # number of swp insts executed
system.cpu00.iew.exec_nop                      107533                       # number of nop insts executed
system.cpu00.iew.exec_refs                     311579                       # number of memory reference insts executed
system.cpu00.iew.exec_branches                 110264                       # Number of branches executed
system.cpu00.iew.exec_stores                   128872                       # Number of stores executed
system.cpu00.iew.exec_rate                   0.917596                       # Inst execution rate
system.cpu00.iew.wb_sent                       933555                       # cumulative count of insts sent to commit
system.cpu00.iew.wb_count                      930006                       # cumulative count of insts written-back
system.cpu00.iew.wb_producers                  545145                       # num instructions producing a value
system.cpu00.iew.wb_consumers                  776735                       # num instructions consuming a value
system.cpu00.iew.wb_rate                     0.902998                       # insts written-back per cycle
system.cpu00.iew.wb_fanout                   0.701842                       # average fanout of values written-back
system.cpu00.commit.commitSquashedInsts        105341                       # The number of squashed insts skipped by commit
system.cpu00.commit.commitNonSpecStalls          2365                       # The number of times commit has been forced to stall to communicate backwards
system.cpu00.commit.branchMispredicts            3963                       # The number of times a branch was mispredicted
system.cpu00.commit.committed_per_cycle::samples       807218                       # Number of insts commited each cycle
system.cpu00.commit.committed_per_cycle::mean     1.199576                       # Number of insts commited each cycle
system.cpu00.commit.committed_per_cycle::stdev     2.301088                       # Number of insts commited each cycle
system.cpu00.commit.committed_per_cycle::underflows            0      0.00%      0.00% # Number of insts commited each cycle
system.cpu00.commit.committed_per_cycle::0       559269     69.28%     69.28% # Number of insts commited each cycle
system.cpu00.commit.committed_per_cycle::1        51514      6.38%     75.67% # Number of insts commited each cycle
system.cpu00.commit.committed_per_cycle::2        50991      6.32%     81.98% # Number of insts commited each cycle
system.cpu00.commit.committed_per_cycle::3        29957      3.71%     85.69% # Number of insts commited each cycle
system.cpu00.commit.committed_per_cycle::4        35371      4.38%     90.08% # Number of insts commited each cycle
system.cpu00.commit.committed_per_cycle::5         8923      1.11%     91.18% # Number of insts commited each cycle
system.cpu00.commit.committed_per_cycle::6        12850      1.59%     92.77% # Number of insts commited each cycle
system.cpu00.commit.committed_per_cycle::7         4991      0.62%     93.39% # Number of insts commited each cycle
system.cpu00.commit.committed_per_cycle::8        53352      6.61%    100.00% # Number of insts commited each cycle
system.cpu00.commit.committed_per_cycle::overflows            0      0.00%    100.00% # Number of insts commited each cycle
system.cpu00.commit.committed_per_cycle::min_value            0                       # Number of insts commited each cycle
system.cpu00.commit.committed_per_cycle::max_value            8                       # Number of insts commited each cycle
system.cpu00.commit.committed_per_cycle::total       807218                       # Number of insts commited each cycle
system.cpu00.commit.committedInsts             968319                       # Number of instructions committed
system.cpu00.commit.committedOps               968319                       # Number of ops (including micro ops) committed
system.cpu00.commit.swp_count                       0                       # Number of s/w prefetches committed
system.cpu00.commit.refs                       280451                       # Number of memory references committed
system.cpu00.commit.loads                      160939                       # Number of loads committed
system.cpu00.commit.membars                      1032                       # Number of memory barriers committed
system.cpu00.commit.branches                   100069                       # Number of branches committed
system.cpu00.commit.fp_insts                   116058                       # Number of committed floating point instructions.
system.cpu00.commit.int_insts                  791858                       # Number of committed integer instructions.
system.cpu00.commit.function_calls              22210                       # Number of function calls committed.
system.cpu00.commit.op_class_0::No_OpClass        98597     10.18%     10.18% # Class of committed instruction
system.cpu00.commit.op_class_0::IntAlu         503112     51.96%     62.14% # Class of committed instruction
system.cpu00.commit.op_class_0::IntMult         12689      1.31%     63.45% # Class of committed instruction
system.cpu00.commit.op_class_0::IntDiv              0      0.00%     63.45% # Class of committed instruction
system.cpu00.commit.op_class_0::FloatAdd        35480      3.66%     67.11% # Class of committed instruction
system.cpu00.commit.op_class_0::FloatCmp            8      0.00%     67.11% # Class of committed instruction
system.cpu00.commit.op_class_0::FloatCvt            0      0.00%     67.11% # Class of committed instruction
system.cpu00.commit.op_class_0::FloatMult        36935      3.81%     70.93% # Class of committed instruction
system.cpu00.commit.op_class_0::FloatDiv           14      0.00%     70.93% # Class of committed instruction
system.cpu00.commit.op_class_0::FloatSqrt            0      0.00%     70.93% # Class of committed instruction
system.cpu00.commit.op_class_0::SimdAdd             0      0.00%     70.93% # Class of committed instruction
system.cpu00.commit.op_class_0::SimdAddAcc            0      0.00%     70.93% # Class of committed instruction
system.cpu00.commit.op_class_0::SimdAlu             0      0.00%     70.93% # Class of committed instruction
system.cpu00.commit.op_class_0::SimdCmp             0      0.00%     70.93% # Class of committed instruction
system.cpu00.commit.op_class_0::SimdCvt             0      0.00%     70.93% # Class of committed instruction
system.cpu00.commit.op_class_0::SimdMisc            0      0.00%     70.93% # Class of committed instruction
system.cpu00.commit.op_class_0::SimdMult            0      0.00%     70.93% # Class of committed instruction
system.cpu00.commit.op_class_0::SimdMultAcc            0      0.00%     70.93% # Class of committed instruction
system.cpu00.commit.op_class_0::SimdShift            0      0.00%     70.93% # Class of committed instruction
system.cpu00.commit.op_class_0::SimdShiftAcc            0      0.00%     70.93% # Class of committed instruction
system.cpu00.commit.op_class_0::SimdSqrt            0      0.00%     70.93% # Class of committed instruction
system.cpu00.commit.op_class_0::SimdFloatAdd            0      0.00%     70.93% # Class of committed instruction
system.cpu00.commit.op_class_0::SimdFloatAlu            0      0.00%     70.93% # Class of committed instruction
system.cpu00.commit.op_class_0::SimdFloatCmp            0      0.00%     70.93% # Class of committed instruction
system.cpu00.commit.op_class_0::SimdFloatCvt            0      0.00%     70.93% # Class of committed instruction
system.cpu00.commit.op_class_0::SimdFloatDiv            0      0.00%     70.93% # Class of committed instruction
system.cpu00.commit.op_class_0::SimdFloatMisc            0      0.00%     70.93% # Class of committed instruction
system.cpu00.commit.op_class_0::SimdFloatMult            0      0.00%     70.93% # Class of committed instruction
system.cpu00.commit.op_class_0::SimdFloatMultAcc            0      0.00%     70.93% # Class of committed instruction
system.cpu00.commit.op_class_0::SimdFloatSqrt            0      0.00%     70.93% # Class of committed instruction
system.cpu00.commit.op_class_0::MemRead        161971     16.73%     87.66% # Class of committed instruction
system.cpu00.commit.op_class_0::MemWrite       119513     12.34%    100.00% # Class of committed instruction
system.cpu00.commit.op_class_0::IprAccess            0      0.00%    100.00% # Class of committed instruction
system.cpu00.commit.op_class_0::InstPrefetch            0      0.00%    100.00% # Class of committed instruction
system.cpu00.commit.op_class_0::total          968319                       # Class of committed instruction
system.cpu00.commit.bw_lim_events               53352                       # number cycles where commit BW limit reached
system.cpu00.rob.rob_reads                    1823535                       # The number of ROB reads
system.cpu00.rob.rob_writes                   2164088                       # The number of ROB writes
system.cpu00.timesIdled                          1439                       # Number of times that the entire CPU went into an idle state and unscheduled itself
system.cpu00.idleCycles                        206069                       # Total number of cycles that the CPU has spent unscheduled due to idling
system.cpu00.quiesceCycles                      71040                       # Total number of cycles that CPU has spent quiesced or waiting for an interrupt
system.cpu00.committedInsts                    869722                       # Number of Instructions Simulated
system.cpu00.committedOps                      869722                       # Number of Ops (including micro ops) Simulated
system.cpu00.cpi                             1.184182                       # CPI: Cycles Per Instruction
system.cpu00.cpi_total                       1.184182                       # CPI: Total CPI of All Threads
system.cpu00.ipc                             0.844465                       # IPC: Instructions Per Cycle
system.cpu00.ipc_total                       0.844465                       # IPC: Total IPC of All Threads
system.cpu00.int_regfile_reads                1141303                       # number of integer regfile reads
system.cpu00.int_regfile_writes                612147                       # number of integer regfile writes
system.cpu00.fp_regfile_reads                  151824                       # number of floating regfile reads
system.cpu00.fp_regfile_writes                 102914                       # number of floating regfile writes
system.cpu00.misc_regfile_reads                  4723                       # number of misc regfile reads
system.cpu00.misc_regfile_writes                 2248                       # number of misc regfile writes
system.cpu00.dcache.tags.replacements           14920                       # number of replacements
system.cpu00.dcache.tags.tagsinuse          63.084019                       # Cycle average of tags in use
system.cpu00.dcache.tags.total_refs            223964                       # Total number of references to valid blocks.
system.cpu00.dcache.tags.sampled_refs           14984                       # Sample count of references to valid blocks.
system.cpu00.dcache.tags.avg_refs           14.946877                       # Average number of references to valid blocks.
system.cpu00.dcache.tags.warmup_cycle        26575870                       # Cycle when the warmup percentage was hit.
system.cpu00.dcache.tags.occ_blocks::cpu00.data    63.084019                       # Average occupied blocks per requestor
system.cpu00.dcache.tags.occ_percent::cpu00.data     0.985688                       # Average percentage of cache occupancy
system.cpu00.dcache.tags.occ_percent::total     0.985688                       # Average percentage of cache occupancy
system.cpu00.dcache.tags.occ_task_id_blocks::1024           64                       # Occupied blocks per task id
system.cpu00.dcache.tags.age_task_id_blocks_1024::0           58                       # Occupied blocks per task id
system.cpu00.dcache.tags.age_task_id_blocks_1024::1            6                       # Occupied blocks per task id
system.cpu00.dcache.tags.occ_task_id_percent::1024            1                       # Percentage of cache occupancy per task id
system.cpu00.dcache.tags.tag_accesses         1098865                       # Number of tag accesses
system.cpu00.dcache.tags.data_accesses        1098865                       # Number of data accesses
system.cpu00.dcache.ReadReq_hits::cpu00.data       138775                       # number of ReadReq hits
system.cpu00.dcache.ReadReq_hits::total        138775                       # number of ReadReq hits
system.cpu00.dcache.WriteReq_hits::cpu00.data        83095                       # number of WriteReq hits
system.cpu00.dcache.WriteReq_hits::total        83095                       # number of WriteReq hits
system.cpu00.dcache.LoadLockedReq_hits::cpu00.data          880                       # number of LoadLockedReq hits
system.cpu00.dcache.LoadLockedReq_hits::total          880                       # number of LoadLockedReq hits
system.cpu00.dcache.StoreCondReq_hits::cpu00.data         1102                       # number of StoreCondReq hits
system.cpu00.dcache.StoreCondReq_hits::total         1102                       # number of StoreCondReq hits
system.cpu00.dcache.demand_hits::cpu00.data       221870                       # number of demand (read+write) hits
system.cpu00.dcache.demand_hits::total         221870                       # number of demand (read+write) hits
system.cpu00.dcache.overall_hits::cpu00.data       221870                       # number of overall hits
system.cpu00.dcache.overall_hits::total        221870                       # number of overall hits
system.cpu00.dcache.ReadReq_misses::cpu00.data        11472                       # number of ReadReq misses
system.cpu00.dcache.ReadReq_misses::total        11472                       # number of ReadReq misses
system.cpu00.dcache.WriteReq_misses::cpu00.data        35296                       # number of WriteReq misses
system.cpu00.dcache.WriteReq_misses::total        35296                       # number of WriteReq misses
system.cpu00.dcache.LoadLockedReq_misses::cpu00.data          304                       # number of LoadLockedReq misses
system.cpu00.dcache.LoadLockedReq_misses::total          304                       # number of LoadLockedReq misses
system.cpu00.dcache.StoreCondReq_misses::cpu00.data           19                       # number of StoreCondReq misses
system.cpu00.dcache.StoreCondReq_misses::total           19                       # number of StoreCondReq misses
system.cpu00.dcache.demand_misses::cpu00.data        46768                       # number of demand (read+write) misses
system.cpu00.dcache.demand_misses::total        46768                       # number of demand (read+write) misses
system.cpu00.dcache.overall_misses::cpu00.data        46768                       # number of overall misses
system.cpu00.dcache.overall_misses::total        46768                       # number of overall misses
system.cpu00.dcache.ReadReq_miss_latency::cpu00.data    470564431                       # number of ReadReq miss cycles
system.cpu00.dcache.ReadReq_miss_latency::total    470564431                       # number of ReadReq miss cycles
system.cpu00.dcache.WriteReq_miss_latency::cpu00.data   5445476167                       # number of WriteReq miss cycles
system.cpu00.dcache.WriteReq_miss_latency::total   5445476167                       # number of WriteReq miss cycles
system.cpu00.dcache.LoadLockedReq_miss_latency::cpu00.data      3063237                       # number of LoadLockedReq miss cycles
system.cpu00.dcache.LoadLockedReq_miss_latency::total      3063237                       # number of LoadLockedReq miss cycles
system.cpu00.dcache.StoreCondReq_miss_latency::cpu00.data       368562                       # number of StoreCondReq miss cycles
system.cpu00.dcache.StoreCondReq_miss_latency::total       368562                       # number of StoreCondReq miss cycles
system.cpu00.dcache.demand_miss_latency::cpu00.data   5916040598                       # number of demand (read+write) miss cycles
system.cpu00.dcache.demand_miss_latency::total   5916040598                       # number of demand (read+write) miss cycles
system.cpu00.dcache.overall_miss_latency::cpu00.data   5916040598                       # number of overall miss cycles
system.cpu00.dcache.overall_miss_latency::total   5916040598                       # number of overall miss cycles
system.cpu00.dcache.ReadReq_accesses::cpu00.data       150247                       # number of ReadReq accesses(hits+misses)
system.cpu00.dcache.ReadReq_accesses::total       150247                       # number of ReadReq accesses(hits+misses)
system.cpu00.dcache.WriteReq_accesses::cpu00.data       118391                       # number of WriteReq accesses(hits+misses)
system.cpu00.dcache.WriteReq_accesses::total       118391                       # number of WriteReq accesses(hits+misses)
system.cpu00.dcache.LoadLockedReq_accesses::cpu00.data         1184                       # number of LoadLockedReq accesses(hits+misses)
system.cpu00.dcache.LoadLockedReq_accesses::total         1184                       # number of LoadLockedReq accesses(hits+misses)
system.cpu00.dcache.StoreCondReq_accesses::cpu00.data         1121                       # number of StoreCondReq accesses(hits+misses)
system.cpu00.dcache.StoreCondReq_accesses::total         1121                       # number of StoreCondReq accesses(hits+misses)
system.cpu00.dcache.demand_accesses::cpu00.data       268638                       # number of demand (read+write) accesses
system.cpu00.dcache.demand_accesses::total       268638                       # number of demand (read+write) accesses
system.cpu00.dcache.overall_accesses::cpu00.data       268638                       # number of overall (read+write) accesses
system.cpu00.dcache.overall_accesses::total       268638                       # number of overall (read+write) accesses
system.cpu00.dcache.ReadReq_miss_rate::cpu00.data     0.076354                       # miss rate for ReadReq accesses
system.cpu00.dcache.ReadReq_miss_rate::total     0.076354                       # miss rate for ReadReq accesses
system.cpu00.dcache.WriteReq_miss_rate::cpu00.data     0.298131                       # miss rate for WriteReq accesses
system.cpu00.dcache.WriteReq_miss_rate::total     0.298131                       # miss rate for WriteReq accesses
system.cpu00.dcache.LoadLockedReq_miss_rate::cpu00.data     0.256757                       # miss rate for LoadLockedReq accesses
system.cpu00.dcache.LoadLockedReq_miss_rate::total     0.256757                       # miss rate for LoadLockedReq accesses
system.cpu00.dcache.StoreCondReq_miss_rate::cpu00.data     0.016949                       # miss rate for StoreCondReq accesses
system.cpu00.dcache.StoreCondReq_miss_rate::total     0.016949                       # miss rate for StoreCondReq accesses
system.cpu00.dcache.demand_miss_rate::cpu00.data     0.174093                       # miss rate for demand accesses
system.cpu00.dcache.demand_miss_rate::total     0.174093                       # miss rate for demand accesses
system.cpu00.dcache.overall_miss_rate::cpu00.data     0.174093                       # miss rate for overall accesses
system.cpu00.dcache.overall_miss_rate::total     0.174093                       # miss rate for overall accesses
system.cpu00.dcache.ReadReq_avg_miss_latency::cpu00.data 41018.517347                       # average ReadReq miss latency
system.cpu00.dcache.ReadReq_avg_miss_latency::total 41018.517347                       # average ReadReq miss latency
system.cpu00.dcache.WriteReq_avg_miss_latency::cpu00.data 154280.263118                       # average WriteReq miss latency
system.cpu00.dcache.WriteReq_avg_miss_latency::total 154280.263118                       # average WriteReq miss latency
system.cpu00.dcache.LoadLockedReq_avg_miss_latency::cpu00.data 10076.437500                       # average LoadLockedReq miss latency
system.cpu00.dcache.LoadLockedReq_avg_miss_latency::total 10076.437500                       # average LoadLockedReq miss latency
system.cpu00.dcache.StoreCondReq_avg_miss_latency::cpu00.data        19398                       # average StoreCondReq miss latency
system.cpu00.dcache.StoreCondReq_avg_miss_latency::total        19398                       # average StoreCondReq miss latency
system.cpu00.dcache.demand_avg_miss_latency::cpu00.data 126497.617987                       # average overall miss latency
system.cpu00.dcache.demand_avg_miss_latency::total 126497.617987                       # average overall miss latency
system.cpu00.dcache.overall_avg_miss_latency::cpu00.data 126497.617987                       # average overall miss latency
system.cpu00.dcache.overall_avg_miss_latency::total 126497.617987                       # average overall miss latency
system.cpu00.dcache.blocked_cycles::no_mshrs       162426                       # number of cycles access was blocked
system.cpu00.dcache.blocked_cycles::no_targets            0                       # number of cycles access was blocked
system.cpu00.dcache.blocked::no_mshrs            3405                       # number of cycles access was blocked
system.cpu00.dcache.blocked::no_targets             0                       # number of cycles access was blocked
system.cpu00.dcache.avg_blocked_cycles::no_mshrs    47.702203                       # average number of cycles each access was blocked
system.cpu00.dcache.avg_blocked_cycles::no_targets          nan                       # average number of cycles each access was blocked
system.cpu00.dcache.fast_writes                     0                       # number of fast writes performed
system.cpu00.dcache.cache_copies                    0                       # number of cache copies performed
system.cpu00.dcache.writebacks::writebacks        10759                       # number of writebacks
system.cpu00.dcache.writebacks::total           10759                       # number of writebacks
system.cpu00.dcache.ReadReq_mshr_hits::cpu00.data         3609                       # number of ReadReq MSHR hits
system.cpu00.dcache.ReadReq_mshr_hits::total         3609                       # number of ReadReq MSHR hits
system.cpu00.dcache.WriteReq_mshr_hits::cpu00.data        28166                       # number of WriteReq MSHR hits
system.cpu00.dcache.WriteReq_mshr_hits::total        28166                       # number of WriteReq MSHR hits
system.cpu00.dcache.LoadLockedReq_mshr_hits::cpu00.data          135                       # number of LoadLockedReq MSHR hits
system.cpu00.dcache.LoadLockedReq_mshr_hits::total          135                       # number of LoadLockedReq MSHR hits
system.cpu00.dcache.demand_mshr_hits::cpu00.data        31775                       # number of demand (read+write) MSHR hits
system.cpu00.dcache.demand_mshr_hits::total        31775                       # number of demand (read+write) MSHR hits
system.cpu00.dcache.overall_mshr_hits::cpu00.data        31775                       # number of overall MSHR hits
system.cpu00.dcache.overall_mshr_hits::total        31775                       # number of overall MSHR hits
system.cpu00.dcache.ReadReq_mshr_misses::cpu00.data         7863                       # number of ReadReq MSHR misses
system.cpu00.dcache.ReadReq_mshr_misses::total         7863                       # number of ReadReq MSHR misses
system.cpu00.dcache.WriteReq_mshr_misses::cpu00.data         7130                       # number of WriteReq MSHR misses
system.cpu00.dcache.WriteReq_mshr_misses::total         7130                       # number of WriteReq MSHR misses
system.cpu00.dcache.LoadLockedReq_mshr_misses::cpu00.data          169                       # number of LoadLockedReq MSHR misses
system.cpu00.dcache.LoadLockedReq_mshr_misses::total          169                       # number of LoadLockedReq MSHR misses
system.cpu00.dcache.StoreCondReq_mshr_misses::cpu00.data           19                       # number of StoreCondReq MSHR misses
system.cpu00.dcache.StoreCondReq_mshr_misses::total           19                       # number of StoreCondReq MSHR misses
system.cpu00.dcache.demand_mshr_misses::cpu00.data        14993                       # number of demand (read+write) MSHR misses
system.cpu00.dcache.demand_mshr_misses::total        14993                       # number of demand (read+write) MSHR misses
system.cpu00.dcache.overall_mshr_misses::cpu00.data        14993                       # number of overall MSHR misses
system.cpu00.dcache.overall_mshr_misses::total        14993                       # number of overall MSHR misses
system.cpu00.dcache.ReadReq_mshr_miss_latency::cpu00.data    264255477                       # number of ReadReq MSHR miss cycles
system.cpu00.dcache.ReadReq_mshr_miss_latency::total    264255477                       # number of ReadReq MSHR miss cycles
system.cpu00.dcache.WriteReq_mshr_miss_latency::cpu00.data   1155005945                       # number of WriteReq MSHR miss cycles
system.cpu00.dcache.WriteReq_mshr_miss_latency::total   1155005945                       # number of WriteReq MSHR miss cycles
system.cpu00.dcache.LoadLockedReq_mshr_miss_latency::cpu00.data      1482361                       # number of LoadLockedReq MSHR miss cycles
system.cpu00.dcache.LoadLockedReq_mshr_miss_latency::total      1482361                       # number of LoadLockedReq MSHR miss cycles
system.cpu00.dcache.StoreCondReq_mshr_miss_latency::cpu00.data       346541                       # number of StoreCondReq MSHR miss cycles
system.cpu00.dcache.StoreCondReq_mshr_miss_latency::total       346541                       # number of StoreCondReq MSHR miss cycles
system.cpu00.dcache.demand_mshr_miss_latency::cpu00.data   1419261422                       # number of demand (read+write) MSHR miss cycles
system.cpu00.dcache.demand_mshr_miss_latency::total   1419261422                       # number of demand (read+write) MSHR miss cycles
system.cpu00.dcache.overall_mshr_miss_latency::cpu00.data   1419261422                       # number of overall MSHR miss cycles
system.cpu00.dcache.overall_mshr_miss_latency::total   1419261422                       # number of overall MSHR miss cycles
system.cpu00.dcache.ReadReq_mshr_miss_rate::cpu00.data     0.052334                       # mshr miss rate for ReadReq accesses
system.cpu00.dcache.ReadReq_mshr_miss_rate::total     0.052334                       # mshr miss rate for ReadReq accesses
system.cpu00.dcache.WriteReq_mshr_miss_rate::cpu00.data     0.060224                       # mshr miss rate for WriteReq accesses
system.cpu00.dcache.WriteReq_mshr_miss_rate::total     0.060224                       # mshr miss rate for WriteReq accesses
system.cpu00.dcache.LoadLockedReq_mshr_miss_rate::cpu00.data     0.142736                       # mshr miss rate for LoadLockedReq accesses
system.cpu00.dcache.LoadLockedReq_mshr_miss_rate::total     0.142736                       # mshr miss rate for LoadLockedReq accesses
system.cpu00.dcache.StoreCondReq_mshr_miss_rate::cpu00.data     0.016949                       # mshr miss rate for StoreCondReq accesses
system.cpu00.dcache.StoreCondReq_mshr_miss_rate::total     0.016949                       # mshr miss rate for StoreCondReq accesses
system.cpu00.dcache.demand_mshr_miss_rate::cpu00.data     0.055811                       # mshr miss rate for demand accesses
system.cpu00.dcache.demand_mshr_miss_rate::total     0.055811                       # mshr miss rate for demand accesses
system.cpu00.dcache.overall_mshr_miss_rate::cpu00.data     0.055811                       # mshr miss rate for overall accesses
system.cpu00.dcache.overall_mshr_miss_rate::total     0.055811                       # mshr miss rate for overall accesses
system.cpu00.dcache.ReadReq_avg_mshr_miss_latency::cpu00.data 33607.462419                       # average ReadReq mshr miss latency
system.cpu00.dcache.ReadReq_avg_mshr_miss_latency::total 33607.462419                       # average ReadReq mshr miss latency
system.cpu00.dcache.WriteReq_avg_mshr_miss_latency::cpu00.data 161992.418654                       # average WriteReq mshr miss latency
system.cpu00.dcache.WriteReq_avg_mshr_miss_latency::total 161992.418654                       # average WriteReq mshr miss latency
[...]
system.tol2bus.pkt_count_system.cpu06.dcache.mem_side::system.l2.cpu_side         2747                       # Packet count per connected master and slave (bytes)
system.tol2bus.pkt_count_system.cpu07.icache.mem_side::system.l2.cpu_side          925                       # Packet count per connected master and slave (bytes)
system.tol2bus.pkt_count_system.cpu07.dcache.mem_side::system.l2.cpu_side         1229                       # Packet count per connected master and slave (bytes)
system.tol2bus.pkt_count_system.cpu08.icache.mem_side::system.l2.cpu_side         1757                       # Packet count per connected master and slave (bytes)
system.tol2bus.pkt_count_system.cpu08.dcache.mem_side::system.l2.cpu_side         1970                       # Packet count per connected master and slave (bytes)
system.tol2bus.pkt_count_system.cpu09.icache.mem_side::system.l2.cpu_side         1225                       # Packet count per connected master and slave (bytes)
system.tol2bus.pkt_count_system.cpu09.dcache.mem_side::system.l2.cpu_side         1312                       # Packet count per connected master and slave (bytes)
system.tol2bus.pkt_count_system.cpu10.icache.mem_side::system.l2.cpu_side         1517                       # Packet count per connected master and slave (bytes)
system.tol2bus.pkt_count_system.cpu10.dcache.mem_side::system.l2.cpu_side         1633                       # Packet count per connected master and slave (bytes)
system.tol2bus.pkt_count_system.cpu11.icache.mem_side::system.l2.cpu_side         2891                       # Packet count per connected master and slave (bytes)
system.tol2bus.pkt_count_system.cpu11.dcache.mem_side::system.l2.cpu_side         3618                       # Packet count per connected master and slave (bytes)
system.tol2bus.pkt_count_system.cpu12.icache.mem_side::system.l2.cpu_side         2456                       # Packet count per connected master and slave (bytes)
system.tol2bus.pkt_count_system.cpu12.dcache.mem_side::system.l2.cpu_side         2967                       # Packet count per connected master and slave (bytes)
system.tol2bus.pkt_count_system.cpu13.icache.mem_side::system.l2.cpu_side         1149                       # Packet count per connected master and slave (bytes)
system.tol2bus.pkt_count_system.cpu13.dcache.mem_side::system.l2.cpu_side         1238                       # Packet count per connected master and slave (bytes)
system.tol2bus.pkt_count_system.cpu14.icache.mem_side::system.l2.cpu_side         2551                       # Packet count per connected master and slave (bytes)
system.tol2bus.pkt_count_system.cpu14.dcache.mem_side::system.l2.cpu_side         3425                       # Packet count per connected master and slave (bytes)
system.tol2bus.pkt_count_system.cpu15.icache.mem_side::system.l2.cpu_side         1005                       # Packet count per connected master and slave (bytes)
system.tol2bus.pkt_count_system.cpu15.dcache.mem_side::system.l2.cpu_side         1282                       # Packet count per connected master and slave (bytes)
system.tol2bus.pkt_count::total                133459                       # Packet count per connected master and slave (bytes)
system.tol2bus.pkt_size_system.cpu00.icache.mem_side::system.l2.cpu_side       978816                       # Cumulative packet size per connected master and slave (bytes)
system.tol2bus.pkt_size_system.cpu00.dcache.mem_side::system.l2.cpu_side      1635136                       # Cumulative packet size per connected master and slave (bytes)
system.tol2bus.pkt_size_system.cpu01.icache.mem_side::system.l2.cpu_side        89216                       # Cumulative packet size per connected master and slave (bytes)
system.tol2bus.pkt_size_system.cpu01.dcache.mem_side::system.l2.cpu_side        69888                       # Cumulative packet size per connected master and slave (bytes)
system.tol2bus.pkt_size_system.cpu02.icache.mem_side::system.l2.cpu_side        80448                       # Cumulative packet size per connected master and slave (bytes)
system.tol2bus.pkt_size_system.cpu02.dcache.mem_side::system.l2.cpu_side        59840                       # Cumulative packet size per connected master and slave (bytes)
system.tol2bus.pkt_size_system.cpu03.icache.mem_side::system.l2.cpu_side        79808                       # Cumulative packet size per connected master and slave (bytes)
system.tol2bus.pkt_size_system.cpu03.dcache.mem_side::system.l2.cpu_side        64896                       # Cumulative packet size per connected master and slave (bytes)
system.tol2bus.pkt_size_system.cpu04.icache.mem_side::system.l2.cpu_side       103680                       # Cumulative packet size per connected master and slave (bytes)
system.tol2bus.pkt_size_system.cpu04.dcache.mem_side::system.l2.cpu_side       110336                       # Cumulative packet size per connected master and slave (bytes)
system.tol2bus.pkt_size_system.cpu05.icache.mem_side::system.l2.cpu_side        94720                       # Cumulative packet size per connected master and slave (bytes)
system.tol2bus.pkt_size_system.cpu05.dcache.mem_side::system.l2.cpu_side        68352                       # Cumulative packet size per connected master and slave (bytes)
system.tol2bus.pkt_size_system.cpu06.icache.mem_side::system.l2.cpu_side        73024                       # Cumulative packet size per connected master and slave (bytes)
system.tol2bus.pkt_size_system.cpu06.dcache.mem_side::system.l2.cpu_side        63936                       # Cumulative packet size per connected master and slave (bytes)
system.tol2bus.pkt_size_system.cpu07.icache.mem_side::system.l2.cpu_side        31360                       # Cumulative packet size per connected master and slave (bytes)
system.tol2bus.pkt_size_system.cpu07.dcache.mem_side::system.l2.cpu_side        34304                       # Cumulative packet size per connected master and slave (bytes)
system.tol2bus.pkt_size_system.cpu08.icache.mem_side::system.l2.cpu_side        65088                       # Cumulative packet size per connected master and slave (bytes)
system.tol2bus.pkt_size_system.cpu08.dcache.mem_side::system.l2.cpu_side        46528                       # Cumulative packet size per connected master and slave (bytes)
system.tol2bus.pkt_size_system.cpu09.icache.mem_side::system.l2.cpu_side        43072                       # Cumulative packet size per connected master and slave (bytes)
system.tol2bus.pkt_size_system.cpu09.dcache.mem_side::system.l2.cpu_side        37184                       # Cumulative packet size per connected master and slave (bytes)
system.tol2bus.pkt_size_system.cpu10.icache.mem_side::system.l2.cpu_side        55104                       # Cumulative packet size per connected master and slave (bytes)
system.tol2bus.pkt_size_system.cpu10.dcache.mem_side::system.l2.cpu_side        47360                       # Cumulative packet size per connected master and slave (bytes)
system.tol2bus.pkt_size_system.cpu11.icache.mem_side::system.l2.cpu_side       112768                       # Cumulative packet size per connected master and slave (bytes)
system.tol2bus.pkt_size_system.cpu11.dcache.mem_side::system.l2.cpu_side        90624                       # Cumulative packet size per connected master and slave (bytes)
system.tol2bus.pkt_size_system.cpu12.icache.mem_side::system.l2.cpu_side        94592                       # Cumulative packet size per connected master and slave (bytes)
system.tol2bus.pkt_size_system.cpu12.dcache.mem_side::system.l2.cpu_side        77440                       # Cumulative packet size per connected master and slave (bytes)
system.tol2bus.pkt_size_system.cpu13.icache.mem_side::system.l2.cpu_side        40320                       # Cumulative packet size per connected master and slave (bytes)
system.tol2bus.pkt_size_system.cpu13.dcache.mem_side::system.l2.cpu_side        31680                       # Cumulative packet size per connected master and slave (bytes)
system.tol2bus.pkt_size_system.cpu14.icache.mem_side::system.l2.cpu_side        98624                       # Cumulative packet size per connected master and slave (bytes)
system.tol2bus.pkt_size_system.cpu14.dcache.mem_side::system.l2.cpu_side        77696                       # Cumulative packet size per connected master and slave (bytes)
system.tol2bus.pkt_size_system.cpu15.icache.mem_side::system.l2.cpu_side        34560                       # Cumulative packet size per connected master and slave (bytes)
system.tol2bus.pkt_size_system.cpu15.dcache.mem_side::system.l2.cpu_side        40384                       # Cumulative packet size per connected master and slave (bytes)
system.tol2bus.pkt_size::total                4630784                       # Cumulative packet size per connected master and slave (bytes)
system.tol2bus.snoops                            7889                       # Total snoops (count)
system.tol2bus.snoop_fanout::samples            52630                       # Request fanout histogram
system.tol2bus.snoop_fanout::mean            2.125385                       # Request fanout histogram
system.tol2bus.snoop_fanout::stdev           3.748054                       # Request fanout histogram
system.tol2bus.snoop_fanout::underflows             0      0.00%      0.00% # Request fanout histogram
system.tol2bus.snoop_fanout::0                  30759     58.44%     58.44% # Request fanout histogram
system.tol2bus.snoop_fanout::1                   7079     13.45%     71.89% # Request fanout histogram
system.tol2bus.snoop_fanout::2                   2178      4.14%     76.03% # Request fanout histogram
system.tol2bus.snoop_fanout::3                   1419      2.70%     78.73% # Request fanout histogram
system.tol2bus.snoop_fanout::4                   1285      2.44%     81.17% # Request fanout histogram
system.tol2bus.snoop_fanout::5                   1219      2.32%     83.49% # Request fanout histogram
system.tol2bus.snoop_fanout::6                   1234      2.34%     85.83% # Request fanout histogram
system.tol2bus.snoop_fanout::7                   1171      2.22%     88.06% # Request fanout histogram
system.tol2bus.snoop_fanout::8                   1057      2.01%     90.06% # Request fanout histogram
system.tol2bus.snoop_fanout::9                    922      1.75%     91.82% # Request fanout histogram
system.tol2bus.snoop_fanout::10                   863      1.64%     93.46% # Request fanout histogram
system.tol2bus.snoop_fanout::11                   802      1.52%     94.98% # Request fanout histogram
system.tol2bus.snoop_fanout::12                   790      1.50%     96.48% # Request fanout histogram
system.tol2bus.snoop_fanout::13                   725      1.38%     97.86% # Request fanout histogram
system.tol2bus.snoop_fanout::14                   687      1.31%     99.16% # Request fanout histogram
system.tol2bus.snoop_fanout::15                   438      0.83%    100.00% # Request fanout histogram
system.tol2bus.snoop_fanout::16                     2      0.00%    100.00% # Request fanout histogram
system.tol2bus.snoop_fanout::17                     0      0.00%    100.00% # Request fanout histogram
system.tol2bus.snoop_fanout::18                     0      0.00%    100.00% # Request fanout histogram
system.tol2bus.snoop_fanout::19                     0      0.00%    100.00% # Request fanout histogram
system.tol2bus.snoop_fanout::20                     0      0.00%    100.00% # Request fanout histogram
system.tol2bus.snoop_fanout::21                     0      0.00%    100.00% # Request fanout histogram
system.tol2bus.snoop_fanout::22                     0      0.00%    100.00% # Request fanout histogram
system.tol2bus.snoop_fanout::23                     0      0.00%    100.00% # Request fanout histogram
system.tol2bus.snoop_fanout::24                     0      0.00%    100.00% # Request fanout histogram
system.tol2bus.snoop_fanout::25                     0      0.00%    100.00% # Request fanout histogram
system.tol2bus.snoop_fanout::26                     0      0.00%    100.00% # Request fanout histogram
system.tol2bus.snoop_fanout::27                     0      0.00%    100.00% # Request fanout histogram
system.tol2bus.snoop_fanout::28                     0      0.00%    100.00% # Request fanout histogram
system.tol2bus.snoop_fanout::29                     0      0.00%    100.00% # Request fanout histogram
system.tol2bus.snoop_fanout::30                     0      0.00%    100.00% # Request fanout histogram
system.tol2bus.snoop_fanout::31                     0      0.00%    100.00% # Request fanout histogram
system.tol2bus.snoop_fanout::32                     0      0.00%    100.00% # Request fanout histogram
system.tol2bus.snoop_fanout::overflows              0      0.00%    100.00% # Request fanout histogram
system.tol2bus.snoop_fanout::min_value              0                       # Request fanout histogram
system.tol2bus.snoop_fanout::max_value             16                       # Request fanout histogram
system.tol2bus.snoop_fanout::total              52630                       # Request fanout histogram
system.tol2bus.reqLayer0.occupancy          169653285                       # Layer occupancy (ticks)
system.tol2bus.reqLayer0.utilization             13.3                       # Layer utilization (%)
system.tol2bus.respLayer0.occupancy          27818611                       # Layer occupancy (ticks)
system.tol2bus.respLayer0.utilization             2.2                       # Layer utilization (%)
system.tol2bus.respLayer1.occupancy          52902846                       # Layer occupancy (ticks)
system.tol2bus.respLayer1.utilization             4.1                       # Layer utilization (%)
system.tol2bus.respLayer2.occupancy           3349201                       # Layer occupancy (ticks)
system.tol2bus.respLayer2.utilization             0.3                       # Layer utilization (%)
system.tol2bus.respLayer3.occupancy           3961350                       # Layer occupancy (ticks)
system.tol2bus.respLayer3.utilization             0.3                       # Layer utilization (%)
system.tol2bus.respLayer4.occupancy           3125520                       # Layer occupancy (ticks)
system.tol2bus.respLayer4.utilization             0.2                       # Layer utilization (%)
system.tol2bus.respLayer5.occupancy           3503941                       # Layer occupancy (ticks)
system.tol2bus.respLayer5.utilization             0.3                       # Layer utilization (%)
system.tol2bus.respLayer6.occupancy           3048469                       # Layer occupancy (ticks)
system.tol2bus.respLayer6.utilization             0.2                       # Layer utilization (%)
system.tol2bus.respLayer7.occupancy           4197749                       # Layer occupancy (ticks)
system.tol2bus.respLayer7.utilization             0.3                       # Layer utilization (%)
system.tol2bus.respLayer8.occupancy           3706455                       # Layer occupancy (ticks)
system.tol2bus.respLayer8.utilization             0.3                       # Layer utilization (%)
system.tol2bus.respLayer9.occupancy           5703924                       # Layer occupancy (ticks)
system.tol2bus.respLayer9.utilization             0.4                       # Layer utilization (%)
system.tol2bus.respLayer10.occupancy          3528918                       # Layer occupancy (ticks)
system.tol2bus.respLayer10.utilization            0.3                       # Layer utilization (%)
system.tol2bus.respLayer11.occupancy          4251114                       # Layer occupancy (ticks)
system.tol2bus.respLayer11.utilization            0.3                       # Layer utilization (%)
system.tol2bus.respLayer12.occupancy          2853294                       # Layer occupancy (ticks)
system.tol2bus.respLayer12.utilization            0.2                       # Layer utilization (%)
system.tol2bus.respLayer13.occupancy          4233456                       # Layer occupancy (ticks)
system.tol2bus.respLayer13.utilization            0.3                       # Layer utilization (%)
system.tol2bus.respLayer14.occupancy          1565598                       # Layer occupancy (ticks)
system.tol2bus.respLayer14.utilization            0.1                       # Layer utilization (%)
system.tol2bus.respLayer15.occupancy          1733617                       # Layer occupancy (ticks)
system.tol2bus.respLayer15.utilization            0.1                       # Layer utilization (%)
system.tol2bus.respLayer16.occupancy          2649165                       # Layer occupancy (ticks)
system.tol2bus.respLayer16.utilization            0.2                       # Layer utilization (%)
system.tol2bus.respLayer17.occupancy          2596045                       # Layer occupancy (ticks)
system.tol2bus.respLayer17.utilization            0.2                       # Layer utilization (%)
system.tol2bus.respLayer18.occupancy          1991027                       # Layer occupancy (ticks)
system.tol2bus.respLayer18.utilization            0.2                       # Layer utilization (%)
system.tol2bus.respLayer19.occupancy          1830052                       # Layer occupancy (ticks)
system.tol2bus.respLayer19.utilization            0.1                       # Layer utilization (%)
system.tol2bus.respLayer20.occupancy          2398786                       # Layer occupancy (ticks)
system.tol2bus.respLayer20.utilization            0.2                       # Layer utilization (%)
system.tol2bus.respLayer21.occupancy          2300514                       # Layer occupancy (ticks)
system.tol2bus.respLayer21.utilization            0.2                       # Layer utilization (%)
system.tol2bus.respLayer22.occupancy          4002738                       # Layer occupancy (ticks)
system.tol2bus.respLayer22.utilization            0.3                       # Layer utilization (%)
system.tol2bus.respLayer23.occupancy          5308489                       # Layer occupancy (ticks)
system.tol2bus.respLayer23.utilization            0.4                       # Layer utilization (%)
system.tol2bus.respLayer24.occupancy          3483318                       # Layer occupancy (ticks)
system.tol2bus.respLayer24.utilization            0.3                       # Layer utilization (%)
system.tol2bus.respLayer25.occupancy          4303168                       # Layer occupancy (ticks)
system.tol2bus.respLayer25.utilization            0.3                       # Layer utilization (%)
system.tol2bus.respLayer26.occupancy          1877011                       # Layer occupancy (ticks)
system.tol2bus.respLayer26.utilization            0.1                       # Layer utilization (%)
system.tol2bus.respLayer27.occupancy          1782486                       # Layer occupancy (ticks)
system.tol2bus.respLayer27.utilization            0.1                       # Layer utilization (%)
system.tol2bus.respLayer28.occupancy          3584285                       # Layer occupancy (ticks)
system.tol2bus.respLayer28.utilization            0.3                       # Layer utilization (%)
system.tol2bus.respLayer29.occupancy          5019496                       # Layer occupancy (ticks)
system.tol2bus.respLayer29.utilization            0.4                       # Layer utilization (%)
system.tol2bus.respLayer30.occupancy          1658879                       # Layer occupancy (ticks)
system.tol2bus.respLayer30.utilization            0.1                       # Layer utilization (%)
system.tol2bus.respLayer31.occupancy          1737148                       # Layer occupancy (ticks)
system.tol2bus.respLayer31.utilization            0.1                       # Layer utilization (%)

---------- End Simulation Statistics   ----------
