
---------- Begin Simulation Statistics ----------
sim_seconds                                  0.053707                       # Number of seconds simulated
sim_ticks                                 53707250475                       # Number of ticks simulated
final_tick                                53707250475                       # Number of ticks from beginning of simulation (restored from checkpoints and never reset)
sim_freq                                 1000000000000                       # Frequency of simulated ticks
host_inst_rate                                 287392                       # Simulator instruction rate (inst/s)
host_op_rate                                   287392                       # Simulator op (including micro ops) rate (op/s)
host_tick_rate                               33093449                       # Simulator tick rate (ticks/s)
host_mem_usage                                 693528                       # Number of bytes of host memory used
host_seconds                                  1622.90                       # Real time elapsed on the host
sim_insts                                   466408003                       # Number of instructions simulated
sim_ops                                     466408003                       # Number of ops (including micro ops) simulated
system.voltage_domain.voltage                       1                       # Voltage in Volts
system.clk_domain.clock                          1000                       # Clock period in ticks
system.mem_ctrls.bytes_read::cpu00.inst        138944                       # Number of bytes read from this memory
system.mem_ctrls.bytes_read::cpu00.data       5759040                       # Number of bytes read from this memory
system.mem_ctrls.bytes_read::cpu01.inst         12480                       # Number of bytes read from this memory
system.mem_ctrls.bytes_read::cpu01.data       1094720                       # Number of bytes read from this memory
system.mem_ctrls.bytes_read::cpu02.inst           960                       # Number of bytes read from this memory
system.mem_ctrls.bytes_read::cpu02.data       1056064                       # Number of bytes read from this memory
system.mem_ctrls.bytes_read::cpu03.inst           960                       # Number of bytes read from this memory
system.mem_ctrls.bytes_read::cpu03.data       1139200                       # Number of bytes read from this memory
system.mem_ctrls.bytes_read::cpu04.data       1107136                       # Number of bytes read from this memory
system.mem_ctrls.bytes_read::cpu05.inst           448                       # Number of bytes read from this memory
system.mem_ctrls.bytes_read::cpu05.data       1120192                       # Number of bytes read from this memory
system.mem_ctrls.bytes_read::cpu06.inst           768                       # Number of bytes read from this memory
system.mem_ctrls.bytes_read::cpu06.data       1082368                       # Number of bytes read from this memory
system.mem_ctrls.bytes_read::cpu07.inst           320                       # Number of bytes read from this memory
system.mem_ctrls.bytes_read::cpu07.data       1173376                       # Number of bytes read from this memory
system.mem_ctrls.bytes_read::cpu08.inst           128                       # Number of bytes read from this memory
system.mem_ctrls.bytes_read::cpu08.data       1145728                       # Number of bytes read from this memory
system.mem_ctrls.bytes_read::cpu09.inst           448                       # Number of bytes read from this memory
system.mem_ctrls.bytes_read::cpu09.data       1147648                       # Number of bytes read from this memory
system.mem_ctrls.bytes_read::cpu10.inst           256                       # Number of bytes read from this memory
system.mem_ctrls.bytes_read::cpu10.data       1099648                       # Number of bytes read from this memory
system.mem_ctrls.bytes_read::cpu11.inst           576                       # Number of bytes read from this memory
system.mem_ctrls.bytes_read::cpu11.data       1185664                       # Number of bytes read from this memory
system.mem_ctrls.bytes_read::cpu12.inst           128                       # Number of bytes read from this memory
system.mem_ctrls.bytes_read::cpu12.data       1163904                       # Number of bytes read from this memory
system.mem_ctrls.bytes_read::cpu13.inst           256                       # Number of bytes read from this memory
system.mem_ctrls.bytes_read::cpu13.data       1167168                       # Number of bytes read from this memory
system.mem_ctrls.bytes_read::cpu14.inst           128                       # Number of bytes read from this memory
system.mem_ctrls.bytes_read::cpu14.data       1139840                       # Number of bytes read from this memory
system.mem_ctrls.bytes_read::cpu15.inst            64                       # Number of bytes read from this memory
system.mem_ctrls.bytes_read::cpu15.data       1224448                       # Number of bytes read from this memory
system.mem_ctrls.bytes_read::total           22963008                       # Number of bytes read from this memory
system.mem_ctrls.bytes_inst_read::cpu00.inst       138944                       # Number of instructions bytes read from this memory
system.mem_ctrls.bytes_inst_read::cpu01.inst        12480                       # Number of instructions bytes read from this memory
system.mem_ctrls.bytes_inst_read::cpu02.inst          960                       # Number of instructions bytes read from this memory
system.mem_ctrls.bytes_inst_read::cpu03.inst          960                       # Number of instructions bytes read from this memory
system.mem_ctrls.bytes_inst_read::cpu05.inst          448                       # Number of instructions bytes read from this memory
system.mem_ctrls.bytes_inst_read::cpu06.inst          768                       # Number of instructions bytes read from this memory
system.mem_ctrls.bytes_inst_read::cpu07.inst          320                       # Number of instructions bytes read from this memory
system.mem_ctrls.bytes_inst_read::cpu08.inst          128                       # Number of instructions bytes read from this memory
system.mem_ctrls.bytes_inst_read::cpu09.inst          448                       # Number of instructions bytes read from this memory
system.mem_ctrls.bytes_inst_read::cpu10.inst          256                       # Number of instructions bytes read from this memory
system.mem_ctrls.bytes_inst_read::cpu11.inst          576                       # Number of instructions bytes read from this memory
system.mem_ctrls.bytes_inst_read::cpu12.inst          128                       # Number of instructions bytes read from this memory
system.mem_ctrls.bytes_inst_read::cpu13.inst          256                       # Number of instructions bytes read from this memory
system.mem_ctrls.bytes_inst_read::cpu14.inst          128                       # Number of instructions bytes read from this memory
system.mem_ctrls.bytes_inst_read::cpu15.inst           64                       # Number of instructions bytes read from this memory
system.mem_ctrls.bytes_inst_read::total        156864                       # Number of instructions bytes read from this memory
system.mem_ctrls.bytes_written::writebacks     17108672                       # Number of bytes written to this memory
system.mem_ctrls.bytes_written::total        17108672                       # Number of bytes written to this memory
system.mem_ctrls.num_reads::cpu00.inst           2171                       # Number of read requests responded to by this memory
system.mem_ctrls.num_reads::cpu00.data          89985                       # Number of read requests responded to by this memory
system.mem_ctrls.num_reads::cpu01.inst            195                       # Number of read requests responded to by this memory
system.mem_ctrls.num_reads::cpu01.data          17105                       # Number of read requests responded to by this memory
system.mem_ctrls.num_reads::cpu02.inst             15                       # Number of read requests responded to by this memory
system.mem_ctrls.num_reads::cpu02.data          16501                       # Number of read requests responded to by this memory
system.mem_ctrls.num_reads::cpu03.inst             15                       # Number of read requests responded to by this memory
system.mem_ctrls.num_reads::cpu03.data          17800                       # Number of read requests responded to by this memory
system.mem_ctrls.num_reads::cpu04.data          17299                       # Number of read requests responded to by this memory
system.mem_ctrls.num_reads::cpu05.inst              7                       # Number of read requests responded to by this memory
system.mem_ctrls.num_reads::cpu05.data          17503                       # Number of read requests responded to by this memory
system.mem_ctrls.num_reads::cpu06.inst             12                       # Number of read requests responded to by this memory
system.mem_ctrls.num_reads::cpu06.data          16912                       # Number of read requests responded to by this memory
system.mem_ctrls.num_reads::cpu07.inst              5                       # Number of read requests responded to by this memory
system.mem_ctrls.num_reads::cpu07.data          18334                       # Number of read requests responded to by this memory
system.mem_ctrls.num_reads::cpu08.inst              2                       # Number of read requests responded to by this memory
system.mem_ctrls.num_reads::cpu08.data          17902                       # Number of read requests responded to by this memory
system.mem_ctrls.num_reads::cpu09.inst              7                       # Number of read requests responded to by this memory
system.mem_ctrls.num_reads::cpu09.data          17932                       # Number of read requests responded to by this memory
system.mem_ctrls.num_reads::cpu10.inst              4                       # Number of read requests responded to by this memory
system.mem_ctrls.num_reads::cpu10.data          17182                       # Number of read requests responded to by this memory
system.mem_ctrls.num_reads::cpu11.inst              9                       # Number of read requests responded to by this memory
system.mem_ctrls.num_reads::cpu11.data          18526                       # Number of read requests responded to by this memory
system.mem_ctrls.num_reads::cpu12.inst              2                       # Number of read requests responded to by this memory
system.mem_ctrls.num_reads::cpu12.data          18186                       # Number of read requests responded to by this memory
system.mem_ctrls.num_reads::cpu13.inst              4                       # Number of read requests responded to by this memory
system.mem_ctrls.num_reads::cpu13.data          18237                       # Number of read requests responded to by this memory
system.mem_ctrls.num_reads::cpu14.inst              2                       # Number of read requests responded to by this memory
system.mem_ctrls.num_reads::cpu14.data          17810                       # Number of read requests responded to by this memory
system.mem_ctrls.num_reads::cpu15.inst              1                       # Number of read requests responded to by this memory
system.mem_ctrls.num_reads::cpu15.data          19132                       # Number of read requests responded to by this memory
system.mem_ctrls.num_reads::total              358797                       # Number of read requests responded to by this memory
system.mem_ctrls.num_writes::writebacks        267323                       # Number of write requests responded to by this memory
system.mem_ctrls.num_writes::total             267323                       # Number of write requests responded to by this memory
system.mem_ctrls.bw_read::cpu00.inst          2587062                       # Total read bandwidth from this memory (bytes/s)
system.mem_ctrls.bw_read::cpu00.data        107230215                       # Total read bandwidth from this memory (bytes/s)
system.mem_ctrls.bw_read::cpu01.inst           232371                       # Total read bandwidth from this memory (bytes/s)
system.mem_ctrls.bw_read::cpu01.data         20383095                       # Total read bandwidth from this memory (bytes/s)
system.mem_ctrls.bw_read::cpu02.inst            17875                       # Total read bandwidth from this memory (bytes/s)
system.mem_ctrls.bw_read::cpu02.data         19663341                       # Total read bandwidth from this memory (bytes/s)
system.mem_ctrls.bw_read::cpu03.inst            17875                       # Total read bandwidth from this memory (bytes/s)
system.mem_ctrls.bw_read::cpu03.data         21211289                       # Total read bandwidth from this memory (bytes/s)
system.mem_ctrls.bw_read::cpu04.data         20614274                       # Total read bandwidth from this memory (bytes/s)
system.mem_ctrls.bw_read::cpu05.inst             8342                       # Total read bandwidth from this memory (bytes/s)
system.mem_ctrls.bw_read::cpu05.data         20857370                       # Total read bandwidth from this memory (bytes/s)
system.mem_ctrls.bw_read::cpu06.inst            14300                       # Total read bandwidth from this memory (bytes/s)
system.mem_ctrls.bw_read::cpu06.data         20153108                       # Total read bandwidth from this memory (bytes/s)
system.mem_ctrls.bw_read::cpu07.inst             5958                       # Total read bandwidth from this memory (bytes/s)
system.mem_ctrls.bw_read::cpu07.data         21847627                       # Total read bandwidth from this memory (bytes/s)
system.mem_ctrls.bw_read::cpu08.inst             2383                       # Total read bandwidth from this memory (bytes/s)
system.mem_ctrls.bw_read::cpu08.data         21332837                       # Total read bandwidth from this memory (bytes/s)
system.mem_ctrls.bw_read::cpu09.inst             8342                       # Total read bandwidth from this memory (bytes/s)
system.mem_ctrls.bw_read::cpu09.data         21368586                       # Total read bandwidth from this memory (bytes/s)
system.mem_ctrls.bw_read::cpu10.inst             4767                       # Total read bandwidth from this memory (bytes/s)
system.mem_ctrls.bw_read::cpu10.data         20474852                       # Total read bandwidth from this memory (bytes/s)
system.mem_ctrls.bw_read::cpu11.inst            10725                       # Total read bandwidth from this memory (bytes/s)
system.mem_ctrls.bw_read::cpu11.data         22076423                       # Total read bandwidth from this memory (bytes/s)
system.mem_ctrls.bw_read::cpu12.inst             2383                       # Total read bandwidth from this memory (bytes/s)
system.mem_ctrls.bw_read::cpu12.data         21671264                       # Total read bandwidth from this memory (bytes/s)
system.mem_ctrls.bw_read::cpu13.inst             4767                       # Total read bandwidth from this memory (bytes/s)
system.mem_ctrls.bw_read::cpu13.data         21732038                       # Total read bandwidth from this memory (bytes/s)
system.mem_ctrls.bw_read::cpu14.inst             2383                       # Total read bandwidth from this memory (bytes/s)
system.mem_ctrls.bw_read::cpu14.data         21223205                       # Total read bandwidth from this memory (bytes/s)
system.mem_ctrls.bw_read::cpu15.inst             1192                       # Total read bandwidth from this memory (bytes/s)
system.mem_ctrls.bw_read::cpu15.data         22798561                       # Total read bandwidth from this memory (bytes/s)
system.mem_ctrls.bw_read::total             427558808                       # Total read bandwidth from this memory (bytes/s)
system.mem_ctrls.bw_inst_read::cpu00.inst      2587062                       # Instruction read bandwidth from this memory (bytes/s)
system.mem_ctrls.bw_inst_read::cpu01.inst       232371                       # Instruction read bandwidth from this memory (bytes/s)
system.mem_ctrls.bw_inst_read::cpu02.inst        17875                       # Instruction read bandwidth from this memory (bytes/s)
system.mem_ctrls.bw_inst_read::cpu03.inst        17875                       # Instruction read bandwidth from this memory (bytes/s)
system.mem_ctrls.bw_inst_read::cpu05.inst         8342                       # Instruction read bandwidth from this memory (bytes/s)
system.mem_ctrls.bw_inst_read::cpu06.inst        14300                       # Instruction read bandwidth from this memory (bytes/s)
system.mem_ctrls.bw_inst_read::cpu07.inst         5958                       # Instruction read bandwidth from this memory (bytes/s)
system.mem_ctrls.bw_inst_read::cpu08.inst         2383                       # Instruction read bandwidth from this memory (bytes/s)
system.mem_ctrls.bw_inst_read::cpu09.inst         8342                       # Instruction read bandwidth from this memory (bytes/s)
system.mem_ctrls.bw_inst_read::cpu10.inst         4767                       # Instruction read bandwidth from this memory (bytes/s)
system.mem_ctrls.bw_inst_read::cpu11.inst        10725                       # Instruction read bandwidth from this memory (bytes/s)
system.mem_ctrls.bw_inst_read::cpu12.inst         2383                       # Instruction read bandwidth from this memory (bytes/s)
system.mem_ctrls.bw_inst_read::cpu13.inst         4767                       # Instruction read bandwidth from this memory (bytes/s)
system.mem_ctrls.bw_inst_read::cpu14.inst         2383                       # Instruction read bandwidth from this memory (bytes/s)
system.mem_ctrls.bw_inst_read::cpu15.inst         1192                       # Instruction read bandwidth from this memory (bytes/s)
system.mem_ctrls.bw_inst_read::total          2920723                       # Instruction read bandwidth from this memory (bytes/s)
system.mem_ctrls.bw_write::writebacks       318554233                       # Write bandwidth from this memory (bytes/s)
system.mem_ctrls.bw_write::total            318554233                       # Write bandwidth from this memory (bytes/s)
system.mem_ctrls.bw_total::writebacks       318554233                       # Total bandwidth to/from this memory (bytes/s)
system.mem_ctrls.bw_total::cpu00.inst         2587062                       # Total bandwidth to/from this memory (bytes/s)
system.mem_ctrls.bw_total::cpu00.data       107230215                       # Total bandwidth to/from this memory (bytes/s)
system.mem_ctrls.bw_total::cpu01.inst          232371                       # Total bandwidth to/from this memory (bytes/s)
system.mem_ctrls.bw_total::cpu01.data        20383095                       # Total bandwidth to/from this memory (bytes/s)
system.mem_ctrls.bw_total::cpu02.inst           17875                       # Total bandwidth to/from this memory (bytes/s)
system.mem_ctrls.bw_total::cpu02.data        19663341                       # Total bandwidth to/from this memory (bytes/s)
system.mem_ctrls.bw_total::cpu03.inst           17875                       # Total bandwidth to/from this memory (bytes/s)
system.mem_ctrls.bw_total::cpu03.data        21211289                       # Total bandwidth to/from this memory (bytes/s)
system.mem_ctrls.bw_total::cpu04.data        20614274                       # Total bandwidth to/from this memory (bytes/s)
system.mem_ctrls.bw_total::cpu05.inst            8342                       # Total bandwidth to/from this memory (bytes/s)
system.mem_ctrls.bw_total::cpu05.data        20857370                       # Total bandwidth to/from this memory (bytes/s)
system.mem_ctrls.bw_total::cpu06.inst           14300                       # Total bandwidth to/from this memory (bytes/s)
system.mem_ctrls.bw_total::cpu06.data        20153108                       # Total bandwidth to/from this memory (bytes/s)
system.mem_ctrls.bw_total::cpu07.inst            5958                       # Total bandwidth to/from this memory (bytes/s)
system.mem_ctrls.bw_total::cpu07.data        21847627                       # Total bandwidth to/from this memory (bytes/s)
system.mem_ctrls.bw_total::cpu08.inst            2383                       # Total bandwidth to/from this memory (bytes/s)
system.mem_ctrls.bw_total::cpu08.data        21332837                       # Total bandwidth to/from this memory (bytes/s)
system.mem_ctrls.bw_total::cpu09.inst            8342                       # Total bandwidth to/from this memory (bytes/s)
system.mem_ctrls.bw_total::cpu09.data        21368586                       # Total bandwidth to/from this memory (bytes/s)
system.mem_ctrls.bw_total::cpu10.inst            4767                       # Total bandwidth to/from this memory (bytes/s)
system.mem_ctrls.bw_total::cpu10.data        20474852                       # Total bandwidth to/from this memory (bytes/s)
system.mem_ctrls.bw_total::cpu11.inst           10725                       # Total bandwidth to/from this memory (bytes/s)
system.mem_ctrls.bw_total::cpu11.data        22076423                       # Total bandwidth to/from this memory (bytes/s)
system.mem_ctrls.bw_total::cpu12.inst            2383                       # Total bandwidth to/from this memory (bytes/s)
system.mem_ctrls.bw_total::cpu12.data        21671264                       # Total bandwidth to/from this memory (bytes/s)
system.mem_ctrls.bw_total::cpu13.inst            4767                       # Total bandwidth to/from this memory (bytes/s)
system.mem_ctrls.bw_total::cpu13.data        21732038                       # Total bandwidth to/from this memory (bytes/s)
system.mem_ctrls.bw_total::cpu14.inst            2383                       # Total bandwidth to/from this memory (bytes/s)
system.mem_ctrls.bw_total::cpu14.data        21223205                       # Total bandwidth to/from this memory (bytes/s)
system.mem_ctrls.bw_total::cpu15.inst            1192                       # Total bandwidth to/from this memory (bytes/s)
system.mem_ctrls.bw_total::cpu15.data        22798561                       # Total bandwidth to/from this memory (bytes/s)
system.mem_ctrls.bw_total::total            746113041                       # Total bandwidth to/from this memory (bytes/s)
system.cpu00.branchPred.lookups              16413836                       # Number of BP lookups
system.cpu00.branchPred.condPredicted         9954637                       # Number of conditional branches predicted
system.cpu00.branchPred.condIncorrect           22910                       # Number of conditional branches incorrect
system.cpu00.branchPred.BTBLookups           11483310                       # Number of BTB lookups
system.cpu00.branchPred.BTBHits               8321523                       # Number of BTB hits
system.cpu00.branchPred.BTBCorrect                  0                       # Number of correct BTB predictions (this stat may not work properly.
system.cpu00.branchPred.BTBHitPct           72.466240                       # BTB Hit Percentage
system.cpu00.branchPred.usedRAS               3224353                       # Number of times the RAS was used to get a target.
system.cpu00.branchPred.RASInCorrect               91                       # Number of incorrect RAS predictions.
system.cpu00.branchPred.indirectLookups        265179                       # Number of indirect predictor lookups.
system.cpu00.branchPred.indirectHits           264296                       # Number of indirect target hits.
system.cpu00.branchPred.indirectMisses            883                       # Number of indirect misses.
system.cpu00.branchPredindirectMispredicted          261                       # Number of mispredicted indirect branches.
system.cpu_voltage_domain.voltage                   1                       # Voltage in Volts
system.cpu_clk_domain.clock                      1161                       # Clock period in ticks
system.cpu00.dtb.fetch_hits                         0                       # ITB hits
system.cpu00.dtb.fetch_misses                       0                       # ITB misses
system.cpu00.dtb.fetch_acv                          0                       # ITB acv
system.cpu00.dtb.fetch_accesses                     0                       # ITB accesses
system.cpu00.dtb.read_hits                   21240565                       # DTB read hits
system.cpu00.dtb.read_misses                     5612                       # DTB read misses
system.cpu00.dtb.read_acv                           1                       # DTB read access violations
system.cpu00.dtb.read_accesses               21246177                       # DTB read accesses
system.cpu00.dtb.write_hits                   7525669                       # DTB write hits
system.cpu00.dtb.write_misses                    2321                       # DTB write misses
system.cpu00.dtb.write_acv                          0                       # DTB write access violations
system.cpu00.dtb.write_accesses               7527990                       # DTB write accesses
system.cpu00.dtb.data_hits                   28766234                       # DTB hits
system.cpu00.dtb.data_misses                     7933                       # DTB misses
system.cpu00.dtb.data_acv                           1                       # DTB access violations
system.cpu00.dtb.data_accesses               28774167                       # DTB accesses
system.cpu00.itb.fetch_hits                  15828540                       # ITB hits
system.cpu00.itb.fetch_misses                     171                       # ITB misses
system.cpu00.itb.fetch_acv                          0                       # ITB acv
system.cpu00.itb.fetch_accesses              15828711                       # ITB accesses
system.cpu00.itb.read_hits                          0                       # DTB read hits
system.cpu00.itb.read_misses                        0                       # DTB read misses
system.cpu00.itb.read_acv                           0                       # DTB read access violations
system.cpu00.itb.read_accesses                      0                       # DTB read accesses
system.cpu00.itb.write_hits                         0                       # DTB write hits
system.cpu00.itb.write_misses                       0                       # DTB write misses
system.cpu00.itb.write_acv                          0                       # DTB write access violations
system.cpu00.itb.write_accesses                     0                       # DTB write accesses
system.cpu00.itb.data_hits                          0                       # DTB hits
system.cpu00.itb.data_misses                        0                       # DTB misses
system.cpu00.itb.data_acv                           0                       # DTB access violations
system.cpu00.itb.data_accesses                      0                       # DTB accesses
system.cpu00.workload.num_syscalls               5349                       # Number of system calls
system.cpu00.numCycles                       45272601                       # number of cpu cycles simulated
system.cpu00.numWorkItemsStarted                    0                       # number of work items this cpu started
system.cpu00.numWorkItemsCompleted                  0                       # number of work items this cpu completed
system.cpu00.fetch.icacheStallCycles           112792                       # Number of cycles fetch is stalled on an Icache miss
system.cpu00.fetch.Insts                    122368838                       # Number of instructions fetch has processed
system.cpu00.fetch.Branches                  16413836                       # Number of branches that fetch encountered
system.cpu00.fetch.predictedBranches         11810172                       # Number of branches that fetch has predicted taken
system.cpu00.fetch.Cycles                    44887573                       # Number of cycles fetch has run and was not squashing or blocked
system.cpu00.fetch.SquashCycles                 53030                       # Number of cycles fetch has spent squashing
system.cpu00.fetch.MiscStallCycles                305                       # Number of cycles fetch has spent waiting on interrupts, or bad addresses, or out of MSHRs
system.cpu00.fetch.PendingTrapStallCycles         6738                       # Number of stall cycles due to pending traps
system.cpu00.fetch.IcacheWaitRetryStallCycles           56                       # Number of stall cycles due to full MSHR
system.cpu00.fetch.CacheLines                15828540                       # Number of cache lines fetched
system.cpu00.fetch.IcacheSquashes                2650                       # Number of outstanding Icache misses that were squashed
system.cpu00.fetch.rateDist::samples         45033979                       # Number of instructions fetched each cycle (Total)
system.cpu00.fetch.rateDist::mean            2.717256                       # Number of instructions fetched each cycle (Total)
system.cpu00.fetch.rateDist::stdev           3.092182                       # Number of instructions fetched each cycle (Total)
system.cpu00.fetch.rateDist::underflows             0      0.00%      0.00% # Number of instructions fetched each cycle (Total)
system.cpu00.fetch.rateDist::0               21863372     48.55%     48.55% # Number of instructions fetched each cycle (Total)
system.cpu00.fetch.rateDist::1                 886644      1.97%     50.52% # Number of instructions fetched each cycle (Total)
system.cpu00.fetch.rateDist::2                2361849      5.24%     55.76% # Number of instructions fetched each cycle (Total)
system.cpu00.fetch.rateDist::3                2725652      6.05%     61.81% # Number of instructions fetched each cycle (Total)
system.cpu00.fetch.rateDist::4                3579915      7.95%     69.76% # Number of instructions fetched each cycle (Total)
system.cpu00.fetch.rateDist::5                1905351      4.23%     73.99% # Number of instructions fetched each cycle (Total)
system.cpu00.fetch.rateDist::6                4063259      9.02%     83.02% # Number of instructions fetched each cycle (Total)
system.cpu00.fetch.rateDist::7                 827925      1.84%     84.86% # Number of instructions fetched each cycle (Total)
system.cpu00.fetch.rateDist::8                6820012     15.14%    100.00% # Number of instructions fetched each cycle (Total)
system.cpu00.fetch.rateDist::overflows              0      0.00%    100.00% # Number of instructions fetched each cycle (Total)
system.cpu00.fetch.rateDist::min_value              0                       # Number of instructions fetched each cycle (Total)
system.cpu00.fetch.rateDist::max_value              8                       # Number of instructions fetched each cycle (Total)
system.cpu00.fetch.rateDist::total           45033979                       # Number of instructions fetched each cycle (Total)
system.cpu00.fetch.branchRate                0.362556                       # Number of branch fetches per cycle
system.cpu00.fetch.rate                      2.702934                       # Number of inst fetches per cycle
system.cpu00.decode.IdleCycles                1180332                       # Number of cycles decode is idle
system.cpu00.decode.BlockedCycles            24729109                       # Number of cycles decode is blocked
system.cpu00.decode.RunCycles                17183677                       # Number of cycles decode is running
system.cpu00.decode.UnblockCycles             1916050                       # Number of cycles decode is unblocking
system.cpu00.decode.SquashCycles                24811                       # Number of cycles decode is squashing
system.cpu00.decode.BranchResolved            2964856                       # Number of times decode resolved a branch
system.cpu00.decode.BranchMispred                1730                       # Number of times decode detected a branch misprediction
system.cpu00.decode.DecodedInsts            122028052                       # Number of instructions handled by decode
system.cpu00.decode.SquashedInsts                7806                       # Number of squashed instructions handled by decode
system.cpu00.rename.SquashCycles                24811                       # Number of cycles rename is squashing
system.cpu00.rename.IdleCycles                2265445                       # Number of cycles rename is idle
system.cpu00.rename.BlockCycles               6112565                       # Number of cycles rename is blocking
system.cpu00.rename.serializeStallCycles     14200940                       # count of cycles rename stalled for serializing inst
system.cpu00.rename.RunCycles                17960437                       # Number of cycles rename is running
system.cpu00.rename.UnblockCycles             4469781                       # Number of cycles rename is unblocking
system.cpu00.rename.RenamedInsts            121865976                       # Number of instructions processed by rename
system.cpu00.rename.ROBFullEvents               74185                       # Number of times rename has blocked due to ROB full
system.cpu00.rename.IQFullEvents              1174236                       # Number of times rename has blocked due to IQ full
system.cpu00.rename.LQFullEvents              1961876                       # Number of times rename has blocked due to LQ full
system.cpu00.rename.SQFullEvents               222191                       # Number of times rename has blocked due to SQ full
system.cpu00.rename.RenamedOperands          94717967                       # Number of destination operands rename has renamed
system.cpu00.rename.RenameLookups           167487697                       # Number of register rename lookups that rename has made
system.cpu00.rename.int_rename_lookups      148675725                       # Number of integer rename lookups
system.cpu00.rename.fp_rename_lookups        18549570                       # Number of floating rename lookups
system.cpu00.rename.CommittedMaps            93904250                       # Number of HB maps that are committed
system.cpu00.rename.UndoneMaps                 813717                       # Number of HB maps that are undone due to squashing
system.cpu00.rename.serializingInsts           265641                       # count of serializing insts renamed
system.cpu00.rename.tempSerializingInsts         2038                       # count of temporary serializing insts renamed
system.cpu00.rename.skidInsts                12081703                       # count of insts added to the skid buffer
system.cpu00.memDep0.insertedLoads           21203376                       # Number of loads inserted to the mem dependence unit.
system.cpu00.memDep0.insertedStores           7540393                       # Number of stores inserted to the mem dependence unit.
system.cpu00.memDep0.conflictingLoads         1506606                       # Number of conflicting loads.
system.cpu00.memDep0.conflictingStores         453201                       # Number of conflicting stores.
system.cpu00.iq.iqInstsAdded                116772460                       # Number of instructions added to the IQ (excludes non-spec)
system.cpu00.iq.iqNonSpecInstsAdded              3235                       # Number of non-speculative instructions added to the IQ
system.cpu00.iq.iqInstsIssued               116725739                       # Number of instructions issued
system.cpu00.iq.iqSquashedInstsIssued           19581                       # Number of squashed instructions issued
system.cpu00.iq.iqSquashedInstsExamined        760257                       # Number of squashed instructions iterated over during squash; mainly for profiling
system.cpu00.iq.iqSquashedOperandsExamined       308790                       # Number of squashed operands that are examined and possibly removed from graph
system.cpu00.iq.iqSquashedNonSpecRemoved          457                       # Number of squashed non-spec instructions that were removed
system.cpu00.iq.issued_per_cycle::samples     45033979                       # Number of insts issued each cycle
system.cpu00.iq.issued_per_cycle::mean       2.591948                       # Number of insts issued each cycle
system.cpu00.iq.issued_per_cycle::stdev      2.666155                       # Number of insts issued each cycle
system.cpu00.iq.issued_per_cycle::underflows            0      0.00%      0.00% # Number of insts issued each cycle
system.cpu00.iq.issued_per_cycle::0          19333600     42.93%     42.93% # Number of insts issued each cycle
system.cpu00.iq.issued_per_cycle::1           1897185      4.21%     47.14% # Number of insts issued each cycle
system.cpu00.iq.issued_per_cycle::2           1999423      4.44%     51.58% # Number of insts issued each cycle
system.cpu00.iq.issued_per_cycle::3           3376210      7.50%     59.08% # Number of insts issued each cycle
system.cpu00.iq.issued_per_cycle::4           5667968     12.59%     71.67% # Number of insts issued each cycle
system.cpu00.iq.issued_per_cycle::5           4562023     10.13%     81.80% # Number of insts issued each cycle
system.cpu00.iq.issued_per_cycle::6           4212285      9.35%     91.15% # Number of insts issued each cycle
system.cpu00.iq.issued_per_cycle::7           1936899      4.30%     95.45% # Number of insts issued each cycle
system.cpu00.iq.issued_per_cycle::8           2048386      4.55%    100.00% # Number of insts issued each cycle
system.cpu00.iq.issued_per_cycle::overflows            0      0.00%    100.00% # Number of insts issued each cycle
system.cpu00.iq.issued_per_cycle::min_value            0                       # Number of insts issued each cycle
system.cpu00.iq.issued_per_cycle::max_value            8                       # Number of insts issued each cycle
system.cpu00.iq.issued_per_cycle::total      45033979                       # Number of insts issued each cycle
system.cpu00.iq.fu_full::No_OpClass                 0      0.00%      0.00% # attempts to use FU when none available
system.cpu00.iq.fu_full::IntAlu               1070040     33.43%     33.43% # attempts to use FU when none available
system.cpu00.iq.fu_full::IntMult               524326     16.38%     49.81% # attempts to use FU when none available
system.cpu00.iq.fu_full::IntDiv                     0      0.00%     49.81% # attempts to use FU when none available
system.cpu00.iq.fu_full::FloatAdd               33110      1.03%     50.85% # attempts to use FU when none available
system.cpu00.iq.fu_full::FloatCmp                   0      0.00%     50.85% # attempts to use FU when none available
system.cpu00.iq.fu_full::FloatCvt                   0      0.00%     50.85% # attempts to use FU when none available
system.cpu00.iq.fu_full::FloatMult             659360     20.60%     71.45% # attempts to use FU when none available
system.cpu00.iq.fu_full::FloatDiv                6201      0.19%     71.64% # attempts to use FU when none available
system.cpu00.iq.fu_full::FloatSqrt                  0      0.00%     71.64% # attempts to use FU when none available
system.cpu00.iq.fu_full::SimdAdd                    0      0.00%     71.64% # attempts to use FU when none available
system.cpu00.iq.fu_full::SimdAddAcc                 0      0.00%     71.64% # attempts to use FU when none available
system.cpu00.iq.fu_full::SimdAlu                    0      0.00%     71.64% # attempts to use FU when none available
system.cpu00.iq.fu_full::SimdCmp                    0      0.00%     71.64% # attempts to use FU when none available
system.cpu00.iq.fu_full::SimdCvt                    0      0.00%     71.64% # attempts to use FU when none available
system.cpu00.iq.fu_full::SimdMisc                   0      0.00%     71.64% # attempts to use FU when none available
system.cpu00.iq.fu_full::SimdMult                   0      0.00%     71.64% # attempts to use FU when none available
system.cpu00.iq.fu_full::SimdMultAcc                0      0.00%     71.64% # attempts to use FU when none available
system.cpu00.iq.fu_full::SimdShift                  0      0.00%     71.64% # attempts to use FU when none available
system.cpu00.iq.fu_full::SimdShiftAcc               0      0.00%     71.64% # attempts to use FU when none available
system.cpu00.iq.fu_full::SimdSqrt                   0      0.00%     71.64% # attempts to use FU when none available
system.cpu00.iq.fu_full::SimdFloatAdd               0      0.00%     71.64% # attempts to use FU when none available
system.cpu00.iq.fu_full::SimdFloatAlu               0      0.00%     71.64% # attempts to use FU when none available
system.cpu00.iq.fu_full::SimdFloatCmp               0      0.00%     71.64% # attempts to use FU when none available
system.cpu00.iq.fu_full::SimdFloatCvt               0      0.00%     71.64% # attempts to use FU when none available
system.cpu00.iq.fu_full::SimdFloatDiv               0      0.00%     71.64% # attempts to use FU when none available
system.cpu00.iq.fu_full::SimdFloatMisc              0      0.00%     71.64% # attempts to use FU when none available
system.cpu00.iq.fu_full::SimdFloatMult              0      0.00%     71.64% # attempts to use FU when none available
system.cpu00.iq.fu_full::SimdFloatMultAcc            0      0.00%     71.64% # attempts to use FU when none available
system.cpu00.iq.fu_full::SimdFloatSqrt              0      0.00%     71.64% # attempts to use FU when none available
system.cpu00.iq.fu_full::MemRead               896669     28.02%     99.66% # attempts to use FU when none available
system.cpu00.iq.fu_full::MemWrite               10886      0.34%    100.00% # attempts to use FU when none available
system.cpu00.iq.fu_full::IprAccess                  0      0.00%    100.00% # attempts to use FU when none available
system.cpu00.iq.fu_full::InstPrefetch               0      0.00%    100.00% # attempts to use FU when none available
system.cpu00.iq.FU_type_0::No_OpClass               0      0.00%      0.00% # Type of FU issued
system.cpu00.iq.FU_type_0::IntAlu            77299042     66.22%     66.22% # Type of FU issued
system.cpu00.iq.FU_type_0::IntMult            2395125      2.05%     68.27% # Type of FU issued
system.cpu00.iq.FU_type_0::IntDiv                   0      0.00%     68.27% # Type of FU issued
system.cpu00.iq.FU_type_0::FloatAdd           4750598      4.07%     72.34% # Type of FU issued
system.cpu00.iq.FU_type_0::FloatCmp                31      0.00%     72.34% # Type of FU issued
system.cpu00.iq.FU_type_0::FloatCvt                 0      0.00%     72.34% # Type of FU issued
system.cpu00.iq.FU_type_0::FloatMult          3460719      2.96%     75.31% # Type of FU issued
system.cpu00.iq.FU_type_0::FloatDiv              8371      0.01%     75.32% # Type of FU issued
system.cpu00.iq.FU_type_0::FloatSqrt                0      0.00%     75.32% # Type of FU issued
system.cpu00.iq.FU_type_0::SimdAdd                  0      0.00%     75.32% # Type of FU issued
system.cpu00.iq.FU_type_0::SimdAddAcc               0      0.00%     75.32% # Type of FU issued
system.cpu00.iq.FU_type_0::SimdAlu                  0      0.00%     75.32% # Type of FU issued
system.cpu00.iq.FU_type_0::SimdCmp                  0      0.00%     75.32% # Type of FU issued
system.cpu00.iq.FU_type_0::SimdCvt                  0      0.00%     75.32% # Type of FU issued
system.cpu00.iq.FU_type_0::SimdMisc                 0      0.00%     75.32% # Type of FU issued
system.cpu00.iq.FU_type_0::SimdMult                 0      0.00%     75.32% # Type of FU issued
system.cpu00.iq.FU_type_0::SimdMultAcc              0      0.00%     75.32% # Type of FU issued
system.cpu00.iq.FU_type_0::SimdShift                0      0.00%     75.32% # Type of FU issued
system.cpu00.iq.FU_type_0::SimdShiftAcc             0      0.00%     75.32% # Type of FU issued
system.cpu00.iq.FU_type_0::SimdSqrt                 0      0.00%     75.32% # Type of FU issued
system.cpu00.iq.FU_type_0::SimdFloatAdd             0      0.00%     75.32% # Type of FU issued
system.cpu00.iq.FU_type_0::SimdFloatAlu             0      0.00%     75.32% # Type of FU issued
system.cpu00.iq.FU_type_0::SimdFloatCmp             0      0.00%     75.32% # Type of FU issued
system.cpu00.iq.FU_type_0::SimdFloatCvt             0      0.00%     75.32% # Type of FU issued
system.cpu00.iq.FU_type_0::SimdFloatDiv             0      0.00%     75.32% # Type of FU issued
system.cpu00.iq.FU_type_0::SimdFloatMisc            0      0.00%     75.32% # Type of FU issued
system.cpu00.iq.FU_type_0::SimdFloatMult            0      0.00%     75.32% # Type of FU issued
system.cpu00.iq.FU_type_0::SimdFloatMultAcc            0      0.00%     75.32% # Type of FU issued
system.cpu00.iq.FU_type_0::SimdFloatSqrt            0      0.00%     75.32% # Type of FU issued
system.cpu00.iq.FU_type_0::MemRead           21282163     18.23%     93.55% # Type of FU issued
system.cpu00.iq.FU_type_0::MemWrite           7529690      6.45%    100.00% # Type of FU issued
system.cpu00.iq.FU_type_0::IprAccess                0      0.00%    100.00% # Type of FU issued
system.cpu00.iq.FU_type_0::InstPrefetch             0      0.00%    100.00% # Type of FU issued
system.cpu00.iq.FU_type_0::total            116725739                       # Type of FU issued
system.cpu00.iq.rate                         2.578287                       # Inst issue rate
system.cpu00.iq.fu_busy_cnt                   3200592                       # FU busy when requested
system.cpu00.iq.fu_busy_rate                 0.027420                       # FU busy rate (busy events/executed inst)
system.cpu00.iq.int_inst_queue_reads        241362492                       # Number of integer instruction queue reads
system.cpu00.iq.int_inst_queue_writes        97936194                       # Number of integer instruction queue writes
system.cpu00.iq.int_inst_queue_wakeup_accesses     97142996                       # Number of integer instruction queue wakeup accesses
system.cpu00.iq.fp_inst_queue_reads          40343138                       # Number of floating instruction queue reads
system.cpu00.iq.fp_inst_queue_writes         19600674                       # Number of floating instruction queue writes
system.cpu00.iq.fp_inst_queue_wakeup_accesses     19364259                       # Number of floating instruction queue wakeup accesses
system.cpu00.iq.int_alu_accesses             99099433                       # Number of integer alu accesses
system.cpu00.iq.fp_alu_accesses              20826898                       # Number of floating point alu accesses
system.cpu00.iew.lsq.thread0.forwLoads        1084810                       # Number of loads that had data forwarded from stores
system.cpu00.iew.lsq.thread0.invAddrLoads            0                       # Number of loads ignored due to an invalid address
system.cpu00.iew.lsq.thread0.squashedLoads       145978                       # Number of loads squashed
system.cpu00.iew.lsq.thread0.ignoredResponses           87                       # Number of memory responses ignored because the instruction is squashed
system.cpu00.iew.lsq.thread0.memOrderViolation          928                       # Number of memory ordering violations
system.cpu00.iew.lsq.thread0.squashedStores        32473                       # Number of stores squashed
system.cpu00.iew.lsq.thread0.invAddrSwpfs            0                       # Number of software prefetches ignored due to an invalid address
system.cpu00.iew.lsq.thread0.blockedLoads            0                       # Number of blocked loads due to partial load-store forwarding
system.cpu00.iew.lsq.thread0.rescheduledLoads          228                       # Number of loads that were rescheduled
system.cpu00.iew.lsq.thread0.cacheBlocked       114638                       # Number of times an access to memory failed due to the cache being blocked
system.cpu00.iew.iewIdleCycles                      0                       # Number of cycles IEW is idle
system.cpu00.iew.iewSquashCycles                24811                       # Number of cycles IEW is squashing
system.cpu00.iew.iewBlockCycles                298212                       # Number of cycles IEW is blocking
system.cpu00.iew.iewUnblockCycles              361237                       # Number of cycles IEW is unblocking
system.cpu00.iew.iewDispatchedInsts         121596470                       # Number of instructions dispatched to IQ
system.cpu00.iew.iewDispSquashedInsts            5027                       # Number of squashed instructions skipped by dispatch
system.cpu00.iew.iewDispLoadInsts            21203376                       # Number of dispatched load instructions
system.cpu00.iew.iewDispStoreInsts            7540393                       # Number of dispatched store instructions
system.cpu00.iew.iewDispNonSpecInsts             1954                       # Number of dispatched non-speculative instructions
system.cpu00.iew.iewIQFullEvents                36863                       # Number of times the IQ has become full, causing a stall
system.cpu00.iew.iewLSQFullEvents              319691                       # Number of times the LSQ has become full, causing a stall
system.cpu00.iew.memOrderViolationEvents          928                       # Number of memory order violations
system.cpu00.iew.predictedTakenIncorrect        17964                       # Number of branches that were predicted taken incorrectly
system.cpu00.iew.predictedNotTakenIncorrect         4090                       # Number of branches that were predicted not taken incorrectly
system.cpu00.iew.branchMispredicts              22054                       # Number of branch mispredicts detected at execute
system.cpu00.iew.iewExecutedInsts           116647946                       # Number of executed instructions
system.cpu00.iew.iewExecLoadInsts            21246199                       # Number of load instructions executed
system.cpu00.iew.iewExecSquashedInsts           77793                       # Number of squashed instructions skipped in execute
system.cpu00.iew.exec_swp                           0                       # number of swp insts executed
system.cpu00.iew.exec_nop                     4820775                       # number of nop insts executed
system.cpu00.iew.exec_refs                   28774194                       # number of memory reference insts executed
system.cpu00.iew.exec_branches               16318044                       # Number of branches executed
system.cpu00.iew.exec_stores                  7527995                       # Number of stores executed
system.cpu00.iew.exec_rate                   2.576568                       # Inst execution rate
system.cpu00.iew.wb_sent                    116523194                       # cumulative count of insts sent to commit
system.cpu00.iew.wb_count                   116507255                       # cumulative count of insts written-back
system.cpu00.iew.wb_producers                78193862                       # num instructions producing a value
system.cpu00.iew.wb_consumers               106921027                       # num instructions consuming a value
system.cpu00.iew.wb_rate                     2.573461                       # insts written-back per cycle
system.cpu00.iew.wb_fanout                   0.731324                       # average fanout of values written-back
system.cpu00.commit.commitSquashedInsts        730404                       # The number of squashed insts skipped by commit
system.cpu00.commit.commitNonSpecStalls          2778                       # The number of times commit has been forced to stall to communicate backwards
system.cpu00.commit.branchMispredicts           21206                       # The number of times a branch was mispredicted
system.cpu00.commit.committed_per_cycle::samples     44927837                       # Number of insts commited each cycle
system.cpu00.commit.committed_per_cycle::mean     2.688572                       # Number of insts commited each cycle
system.cpu00.commit.committed_per_cycle::stdev     3.256637                       # Number of insts commited each cycle
system.cpu00.commit.committed_per_cycle::underflows            0      0.00%      0.00% # Number of insts commited each cycle
system.cpu00.commit.committed_per_cycle::0     20763989     46.22%     46.22% # Number of insts commited each cycle
system.cpu00.commit.committed_per_cycle::1      3942547      8.78%     54.99% # Number of insts commited each cycle
system.cpu00.commit.committed_per_cycle::2      3347394      7.45%     62.44% # Number of insts commited each cycle
system.cpu00.commit.committed_per_cycle::3      1962857      4.37%     66.81% # Number of insts commited each cycle
system.cpu00.commit.committed_per_cycle::4      2205076      4.91%     71.72% # Number of insts commited each cycle
system.cpu00.commit.committed_per_cycle::5      1597015      3.55%     75.27% # Number of insts commited each cycle
system.cpu00.commit.committed_per_cycle::6       619249      1.38%     76.65% # Number of insts commited each cycle
system.cpu00.commit.committed_per_cycle::7       172740      0.38%     77.04% # Number of insts commited each cycle
system.cpu00.commit.committed_per_cycle::8     10316970     22.96%    100.00% # Number of insts commited each cycle
system.cpu00.commit.committed_per_cycle::overflows            0      0.00%    100.00% # Number of insts commited each cycle
system.cpu00.commit.committed_per_cycle::min_value            0                       # Number of insts commited each cycle
system.cpu00.commit.committed_per_cycle::max_value            8                       # Number of insts commited each cycle
system.cpu00.commit.committed_per_cycle::total     44927837                       # Number of insts commited each cycle
system.cpu00.commit.committedInsts          120791719                       # Number of instructions committed
system.cpu00.commit.committedOps            120791719                       # Number of ops (including micro ops) committed
system.cpu00.commit.swp_count                       0                       # Number of s/w prefetches committed
system.cpu00.commit.refs                     28565318                       # Number of memory references committed
system.cpu00.commit.loads                    21057398                       # Number of loads committed
system.cpu00.commit.membars                      1102                       # Number of memory barriers committed
system.cpu00.commit.branches                 16205457                       # Number of branches committed
system.cpu00.commit.fp_insts                 19355700                       # Number of committed floating point instructions.
system.cpu00.commit.int_insts               108332371                       # Number of committed integer instructions.
system.cpu00.commit.function_calls            3202145                       # Number of function calls committed.
system.cpu00.commit.op_class_0::No_OpClass      4776282      3.95%      3.95% # Class of committed instruction
system.cpu00.commit.op_class_0::IntAlu       76846498     63.62%     67.57% # Class of committed instruction
system.cpu00.commit.op_class_0::IntMult       2389242      1.98%     69.55% # Class of committed instruction
system.cpu00.commit.op_class_0::IntDiv              0      0.00%     69.55% # Class of committed instruction
system.cpu00.commit.op_class_0::FloatAdd      4744804      3.93%     73.48% # Class of committed instruction
system.cpu00.commit.op_class_0::FloatCmp           27      0.00%     73.48% # Class of committed instruction
system.cpu00.commit.op_class_0::FloatCvt            0      0.00%     73.48% # Class of committed instruction
system.cpu00.commit.op_class_0::FloatMult      3460317      2.86%     76.34% # Class of committed instruction
system.cpu00.commit.op_class_0::FloatDiv         8128      0.01%     76.35% # Class of committed instruction
system.cpu00.commit.op_class_0::FloatSqrt            0      0.00%     76.35% # Class of committed instruction
system.cpu00.commit.op_class_0::SimdAdd             0      0.00%     76.35% # Class of committed instruction
system.cpu00.commit.op_class_0::SimdAddAcc            0      0.00%     76.35% # Class of committed instruction
system.cpu00.commit.op_class_0::SimdAlu             0      0.00%     76.35% # Class of committed instruction
system.cpu00.commit.op_class_0::SimdCmp             0      0.00%     76.35% # Class of committed instruction
system.cpu00.commit.op_class_0::SimdCvt             0      0.00%     76.35% # Class of committed instruction
system.cpu00.commit.op_class_0::SimdMisc            0      0.00%     76.35% # Class of committed instruction
system.cpu00.commit.op_class_0::SimdMult            0      0.00%     76.35% # Class of committed instruction
system.cpu00.commit.op_class_0::SimdMultAcc            0      0.00%     76.35% # Class of committed instruction
system.cpu00.commit.op_class_0::SimdShift            0      0.00%     76.35% # Class of committed instruction
system.cpu00.commit.op_class_0::SimdShiftAcc            0      0.00%     76.35% # Class of committed instruction
system.cpu00.commit.op_class_0::SimdSqrt            0      0.00%     76.35% # Class of committed instruction
system.cpu00.commit.op_class_0::SimdFloatAdd            0      0.00%     76.35% # Class of committed instruction
system.cpu00.commit.op_class_0::SimdFloatAlu            0      0.00%     76.35% # Class of committed instruction
system.cpu00.commit.op_class_0::SimdFloatCmp            0      0.00%     76.35% # Class of committed instruction
system.cpu00.commit.op_class_0::SimdFloatCvt            0      0.00%     76.35% # Class of committed instruction
system.cpu00.commit.op_class_0::SimdFloatDiv            0      0.00%     76.35% # Class of committed instruction
system.cpu00.commit.op_class_0::SimdFloatMisc            0      0.00%     76.35% # Class of committed instruction
system.cpu00.commit.op_class_0::SimdFloatMult            0      0.00%     76.35% # Class of committed instruction
system.cpu00.commit.op_class_0::SimdFloatMultAcc            0      0.00%     76.35% # Class of committed instruction
system.cpu00.commit.op_class_0::SimdFloatSqrt            0      0.00%     76.35% # Class of committed instruction
system.cpu00.commit.op_class_0::MemRead      21058500     17.43%     93.78% # Class of committed instruction
system.cpu00.commit.op_class_0::MemWrite      7507921      6.22%    100.00% # Class of committed instruction
system.cpu00.commit.op_class_0::IprAccess            0      0.00%    100.00% # Class of committed instruction
system.cpu00.commit.op_class_0::InstPrefetch            0      0.00%    100.00% # Class of committed instruction
system.cpu00.commit.op_class_0::total       120791719                       # Class of committed instruction
system.cpu00.commit.bw_lim_events            10316970                       # number cycles where commit BW limit reached
system.cpu00.rob.rob_reads                  156096681                       # The number of ROB reads
system.cpu00.rob.rob_writes                 243150414                       # The number of ROB writes
system.cpu00.timesIdled                          1709                       # Number of times that the entire CPU went into an idle state and unscheduled itself
system.cpu00.idleCycles                        238622                       # Total number of cycles that the CPU has spent unscheduled due to idling
system.cpu00.quiesceCycles                     986875                       # Total number of cycles that CPU has spent quiesced or waiting for an interrupt
system.cpu00.committedInsts                 116015437                       # Number of Instructions Simulated
system.cpu00.committedOps                   116015437                       # Number of Ops (including micro ops) Simulated
system.cpu00.cpi                             0.390229                       # CPI: Cycles Per Instruction
system.cpu00.cpi_total                       0.390229                       # CPI: Total CPI of All Threads
system.cpu00.ipc                             2.562597                       # IPC: Instructions Per Cycle
system.cpu00.ipc_total                       2.562597                       # IPC: Total IPC of All Threads
system.cpu00.int_regfile_reads              148307399                       # number of integer regfile reads
system.cpu00.int_regfile_writes              79449291                       # number of integer regfile writes
system.cpu00.fp_regfile_reads                18305789                       # number of floating regfile reads
system.cpu00.fp_regfile_writes               14838897                       # number of floating regfile writes
system.cpu00.misc_regfile_reads                265188                       # number of misc regfile reads
system.cpu00.misc_regfile_writes                 2455                       # number of misc regfile writes
system.cpu00.dcache.tags.replacements          495662                       # number of replacements
system.cpu00.dcache.tags.tagsinuse          63.949625                       # Cycle average of tags in use
system.cpu00.dcache.tags.total_refs          26338510                       # Total number of references to valid blocks.
system.cpu00.dcache.tags.sampled_refs          495726                       # Sample count of references to valid blocks.
system.cpu00.dcache.tags.avg_refs           53.131185                       # Average number of references to valid blocks.
system.cpu00.dcache.tags.warmup_cycle        86396976                       # Cycle when the warmup percentage was hit.
system.cpu00.dcache.tags.occ_blocks::cpu00.data    63.949625                       # Average occupied blocks per requestor
system.cpu00.dcache.tags.occ_percent::cpu00.data     0.999213                       # Average percentage of cache occupancy
system.cpu00.dcache.tags.occ_percent::total     0.999213                       # Average percentage of cache occupancy
system.cpu00.dcache.tags.occ_task_id_blocks::1024           64                       # Occupied blocks per task id
system.cpu00.dcache.tags.age_task_id_blocks_1024::0           33                       # Occupied blocks per task id
system.cpu00.dcache.tags.age_task_id_blocks_1024::1           31                       # Occupied blocks per task id
system.cpu00.dcache.tags.occ_task_id_percent::1024            1                       # Percentage of cache occupancy per task id
system.cpu00.dcache.tags.tag_accesses        55610397                       # Number of tag accesses
system.cpu00.dcache.tags.data_accesses       55610397                       # Number of data accesses
system.cpu00.dcache.ReadReq_hits::cpu00.data     18997137                       # number of ReadReq hits
system.cpu00.dcache.ReadReq_hits::total      18997137                       # number of ReadReq hits
system.cpu00.dcache.WriteReq_hits::cpu00.data      7338941                       # number of WriteReq hits
system.cpu00.dcache.WriteReq_hits::total      7338941                       # number of WriteReq hits
system.cpu00.dcache.LoadLockedReq_hits::cpu00.data          913                       # number of LoadLockedReq hits
system.cpu00.dcache.LoadLockedReq_hits::total          913                       # number of LoadLockedReq hits
system.cpu00.dcache.StoreCondReq_hits::cpu00.data         1214                       # number of StoreCondReq hits
system.cpu00.dcache.StoreCondReq_hits::total         1214                       # number of StoreCondReq hits
system.cpu00.dcache.demand_hits::cpu00.data     26336078                       # number of demand (read+write) hits
system.cpu00.dcache.demand_hits::total       26336078                       # number of demand (read+write) hits
system.cpu00.dcache.overall_hits::cpu00.data     26336078                       # number of overall hits
system.cpu00.dcache.overall_hits::total      26336078                       # number of overall hits
system.cpu00.dcache.ReadReq_misses::cpu00.data      1050914                       # number of ReadReq misses
system.cpu00.dcache.ReadReq_misses::total      1050914                       # number of ReadReq misses
system.cpu00.dcache.WriteReq_misses::cpu00.data       167754                       # number of WriteReq misses
system.cpu00.dcache.WriteReq_misses::total       167754                       # number of WriteReq misses
system.cpu00.dcache.LoadLockedReq_misses::cpu00.data          368                       # number of LoadLockedReq misses
system.cpu00.dcache.LoadLockedReq_misses::total          368                       # number of LoadLockedReq misses
system.cpu00.dcache.StoreCondReq_misses::cpu00.data           11                       # number of StoreCondReq misses
system.cpu00.dcache.StoreCondReq_misses::total           11                       # number of StoreCondReq misses
system.cpu00.dcache.demand_misses::cpu00.data      1218668                       # number of demand (read+write) misses
system.cpu00.dcache.demand_misses::total      1218668                       # number of demand (read+write) misses
system.cpu00.dcache.overall_misses::cpu00.data      1218668                       # number of overall misses
system.cpu00.dcache.overall_misses::total      1218668                       # number of overall misses
system.cpu00.dcache.ReadReq_miss_latency::cpu00.data  79324742178                       # number of ReadReq miss cycles
system.cpu00.dcache.ReadReq_miss_latency::total  79324742178                       # number of ReadReq miss cycles
system.cpu00.dcache.WriteReq_miss_latency::cpu00.data  13831527758                       # number of WriteReq miss cycles
system.cpu00.dcache.WriteReq_miss_latency::total  13831527758                       # number of WriteReq miss cycles
system.cpu00.dcache.LoadLockedReq_miss_latency::cpu00.data      5450895                       # number of LoadLockedReq miss cycles
system.cpu00.dcache.LoadLockedReq_miss_latency::total      5450895                       # number of LoadLockedReq miss cycles
system.cpu00.dcache.StoreCondReq_miss_latency::cpu00.data        81270                       # number of StoreCondReq miss cycles
system.cpu00.dcache.StoreCondReq_miss_latency::total        81270                       # number of StoreCondReq miss cycles
system.cpu00.dcache.demand_miss_latency::cpu00.data  93156269936                       # number of demand (read+write) miss cycles
system.cpu00.dcache.demand_miss_latency::total  93156269936                       # number of demand (read+write) miss cycles
system.cpu00.dcache.overall_miss_latency::cpu00.data  93156269936                       # number of overall miss cycles
system.cpu00.dcache.overall_miss_latency::total  93156269936                       # number of overall miss cycles
system.cpu00.dcache.ReadReq_accesses::cpu00.data     20048051                       # number of ReadReq accesses(hits+misses)
system.cpu00.dcache.ReadReq_accesses::total     20048051                       # number of ReadReq accesses(hits+misses)
system.cpu00.dcache.WriteReq_accesses::cpu00.data      7506695                       # number of WriteReq accesses(hits+misses)
system.cpu00.dcache.WriteReq_accesses::total      7506695                       # number of WriteReq accesses(hits+misses)
system.cpu00.dcache.LoadLockedReq_accesses::cpu00.data         1281                       # number of LoadLockedReq accesses(hits+misses)
system.cpu00.dcache.LoadLockedReq_accesses::total         1281                       # number of LoadLockedReq accesses(hits+misses)
system.cpu00.dcache.StoreCondReq_accesses::cpu00.data         1225                       # number of StoreCondReq accesses(hits+misses)
system.cpu00.dcache.StoreCondReq_accesses::total         1225                       # number of StoreCondReq accesses(hits+misses)
system.cpu00.dcache.demand_accesses::cpu00.data     27554746                       # number of demand (read+write) accesses
system.cpu00.dcache.demand_accesses::total     27554746                       # number of demand (read+write) accesses
system.cpu00.dcache.overall_accesses::cpu00.data     27554746                       # number of overall (read+write) accesses
system.cpu00.dcache.overall_accesses::total     27554746                       # number of overall (read+write) accesses
system.cpu00.dcache.ReadReq_miss_rate::cpu00.data     0.052420                       # miss rate for ReadReq accesses
system.cpu00.dcache.ReadReq_miss_rate::total     0.052420                       # miss rate for ReadReq accesses
system.cpu00.dcache.WriteReq_miss_rate::cpu00.data     0.022347                       # miss rate for WriteReq accesses
system.cpu00.dcache.WriteReq_miss_rate::total     0.022347                       # miss rate for WriteReq accesses
system.cpu00.dcache.LoadLockedReq_miss_rate::cpu00.data     0.287276                       # miss rate for LoadLockedReq accesses
system.cpu00.dcache.LoadLockedReq_miss_rate::total     0.287276                       # miss rate for LoadLockedReq accesses
system.cpu00.dcache.StoreCondReq_miss_rate::cpu00.data     0.008980                       # miss rate for StoreCondReq accesses
system.cpu00.dcache.StoreCondReq_miss_rate::total     0.008980                       # miss rate for StoreCondReq accesses
system.cpu00.dcache.demand_miss_rate::cpu00.data     0.044227                       # miss rate for demand accesses
system.cpu00.dcache.demand_miss_rate::total     0.044227                       # miss rate for demand accesses
system.cpu00.dcache.overall_miss_rate::cpu00.data     0.044227                       # miss rate for overall accesses
system.cpu00.dcache.overall_miss_rate::total     0.044227                       # miss rate for overall accesses
system.cpu00.dcache.ReadReq_avg_miss_latency::cpu00.data 75481.668508                       # average ReadReq miss latency
system.cpu00.dcache.ReadReq_avg_miss_latency::total 75481.668508                       # average ReadReq miss latency
system.cpu00.dcache.WriteReq_avg_miss_latency::cpu00.data 82451.254563                       # average WriteReq miss latency
system.cpu00.dcache.WriteReq_avg_miss_latency::total 82451.254563                       # average WriteReq miss latency
system.cpu00.dcache.LoadLockedReq_avg_miss_latency::cpu00.data 14812.214674                       # average LoadLockedReq miss latency
system.cpu00.dcache.LoadLockedReq_avg_miss_latency::total 14812.214674                       # average LoadLockedReq miss latency
system.cpu00.dcache.StoreCondReq_avg_miss_latency::cpu00.data  7388.181818                       # average StoreCondReq miss latency
system.cpu00.dcache.StoreCondReq_avg_miss_latency::total  7388.181818                       # average StoreCondReq miss latency
system.cpu00.dcache.demand_avg_miss_latency::cpu00.data 76441.056905                       # average overall miss latency
system.cpu00.dcache.demand_avg_miss_latency::total 76441.056905                       # average overall miss latency
system.cpu00.dcache.overall_avg_miss_latency::cpu00.data 76441.056905                       # average overall miss latency
system.cpu00.dcache.overall_avg_miss_latency::total 76441.056905                       # average overall miss latency
system.cpu00.dcache.blocked_cycles::no_mshrs       403851                       # number of cycles access was blocked
system.cpu00.dcache.blocked_cycles::no_targets          228                       # number of cycles access was blocked
system.cpu00.dcache.blocked::no_mshrs           11866                       # number of cycles access was blocked
system.cpu00.dcache.blocked::no_targets             2                       # number of cycles access was blocked
system.cpu00.dcache.avg_blocked_cycles::no_mshrs    34.034300                       # average number of cycles each access was blocked
system.cpu00.dcache.avg_blocked_cycles::no_targets          114                       # average number of cycles each access was blocked
system.cpu00.dcache.fast_writes                     0                       # number of fast writes performed
system.cpu00.dcache.cache_copies                    0                       # number of cache copies performed
system.cpu00.dcache.writebacks::writebacks       268085                       # number of writebacks
system.cpu00.dcache.writebacks::total          268085                       # number of writebacks
system.cpu00.dcache.ReadReq_mshr_hits::cpu00.data       645231                       # number of ReadReq MSHR hits
system.cpu00.dcache.ReadReq_mshr_hits::total       645231                       # number of ReadReq MSHR hits
system.cpu00.dcache.WriteReq_mshr_hits::cpu00.data        77586                       # number of WriteReq MSHR hits
system.cpu00.dcache.WriteReq_mshr_hits::total        77586                       # number of WriteReq MSHR hits
system.cpu00.dcache.LoadLockedReq_mshr_hits::cpu00.data          178                       # number of LoadLockedReq MSHR hits
system.cpu00.dcache.LoadLockedReq_mshr_hits::total          178                       # number of LoadLockedReq MSHR hits
system.cpu00.dcache.demand_mshr_hits::cpu00.data       722817                       # number of demand (read+write) MSHR hits
system.cpu00.dcache.demand_mshr_hits::total       722817                       # number of demand (read+write) MSHR hits
system.cpu00.dcache.overall_mshr_hits::cpu00.data       722817                       # number of overall MSHR hits
system.cpu00.dcache.overall_mshr_hits::total       722817                       # number of overall MSHR hits
system.cpu00.dcache.ReadReq_mshr_misses::cpu00.data       405683                       # number of ReadReq MSHR misses
system.cpu00.dcache.ReadReq_mshr_misses::total       405683                       # number of ReadReq MSHR misses
system.cpu00.dcache.WriteReq_mshr_misses::cpu00.data        90168                       # number of WriteReq MSHR misses
system.cpu00.dcache.WriteReq_mshr_misses::total        90168                       # number of WriteReq MSHR misses
system.cpu00.dcache.LoadLockedReq_mshr_misses::cpu00.data          190                       # number of LoadLockedReq MSHR misses
system.cpu00.dcache.LoadLockedReq_mshr_misses::total          190                       # number of LoadLockedReq MSHR misses
system.cpu00.dcache.StoreCondReq_mshr_misses::cpu00.data           11                       # number of StoreCondReq MSHR misses
system.cpu00.dcache.StoreCondReq_mshr_misses::total           11                       # number of StoreCondReq MSHR misses
system.cpu00.dcache.demand_mshr_misses::cpu00.data       495851                       # number of demand (read+write) MSHR misses
system.cpu00.dcache.demand_mshr_misses::total       495851                       # number of demand (read+write) MSHR misses
system.cpu00.dcache.overall_mshr_misses::cpu00.data       495851                       # number of overall MSHR misses
system.cpu00.dcache.overall_mshr_misses::total       495851                       # number of overall MSHR misses
system.cpu00.dcache.ReadReq_mshr_miss_latency::cpu00.data  17251442964                       # number of ReadReq MSHR miss cycles
system.cpu00.dcache.ReadReq_mshr_miss_latency::total  17251442964                       # number of ReadReq MSHR miss cycles
system.cpu00.dcache.WriteReq_mshr_miss_latency::cpu00.data   8862342126                       # number of WriteReq MSHR miss cycles
system.cpu00.dcache.WriteReq_mshr_miss_latency::total   8862342126                       # number of WriteReq MSHR miss cycles
system.cpu00.dcache.LoadLockedReq_mshr_miss_latency::cpu00.data      2280204                       # number of LoadLockedReq MSHR miss cycles
system.cpu00.dcache.LoadLockedReq_mshr_miss_latency::total      2280204                       # number of LoadLockedReq MSHR miss cycles
system.cpu00.dcache.StoreCondReq_mshr_miss_latency::cpu00.data        68499                       # number of StoreCondReq MSHR miss cycles
system.cpu00.dcache.StoreCondReq_mshr_miss_latency::total        68499                       # number of StoreCondReq MSHR miss cycles
system.cpu00.dcache.demand_mshr_miss_latency::cpu00.data  26113785090                       # number of demand (read+write) MSHR miss cycles
system.cpu00.dcache.demand_mshr_miss_latency::total  26113785090                       # number of demand (read+write) MSHR miss cycles
system.cpu00.dcache.overall_mshr_miss_latency::cpu00.data  26113785090                       # number of overall MSHR miss cycles
system.cpu00.dcache.overall_mshr_miss_latency::total  26113785090                       # number of overall MSHR miss cycles
system.cpu00.dcache.ReadReq_mshr_miss_rate::cpu00.data     0.020236                       # mshr miss rate for ReadReq accesses
system.cpu00.dcache.ReadReq_mshr_miss_rate::total     0.020236                       # mshr miss rate for ReadReq accesses
system.cpu00.dcache.WriteReq_mshr_miss_rate::cpu00.data     0.012012                       # mshr miss rate for WriteReq accesses
system.cpu00.dcache.WriteReq_mshr_miss_rate::total     0.012012                       # mshr miss rate for WriteReq accesses
system.cpu00.dcache.LoadLockedReq_mshr_miss_rate::cpu00.data     0.148322                       # mshr miss rate for LoadLockedReq accesses
system.cpu00.dcache.LoadLockedReq_mshr_miss_rate::total     0.148322                       # mshr miss rate for LoadLockedReq accesses
system.cpu00.dcache.StoreCondReq_mshr_miss_rate::cpu00.data     0.008980                       # mshr miss rate for StoreCondReq accesses
system.cpu00.dcache.StoreCondReq_mshr_miss_rate::total     0.008980                       # mshr miss rate for StoreCondReq accesses
system.cpu00.dcache.demand_mshr_miss_rate::cpu00.data     0.017995                       # mshr miss rate for demand accesses
system.cpu00.dcache.demand_mshr_miss_rate::total     0.017995                       # mshr miss rate for demand accesses
system.cpu00.dcache.overall_mshr_miss_rate::cpu00.data     0.017995                       # mshr miss rate for overall accesses
system.cpu00.dcache.overall_mshr_miss_rate::total     0.017995                       # mshr miss rate for overall accesses
system.cpu00.dcache.ReadReq_avg_mshr_miss_latency::cpu00.data 42524.441409                       # average ReadReq mshr miss latency
system.cpu00.dcache.ReadReq_avg_mshr_miss_latency::total 42524.441409                       # average ReadReq mshr miss latency
system.cpu00.dcache.WriteReq_avg_mshr_miss_latency::cpu00.data 98286.999002                       # average WriteReq mshr miss latency
system.cpu00.dcache.WriteReq_avg_mshr_miss_latency::total 98286.999002                       # average WriteReq mshr miss latency
system.cpu00.dcache.LoadLockedReq_avg_mshr_miss_latency::cpu00.data 12001.073684                       # average LoadLockedReq mshr miss latency
system.cpu00.dcache.LoadLockedReq_avg_mshr_miss_latency::total 12001.073684                       # average LoadLockedReq mshr miss latency
system.cpu00.dcache.StoreCondReq_avg_mshr_miss_latency::cpu00.data  6227.181818                       # average StoreCondReq mshr miss latency
system.cpu00.dcache.StoreCondReq_avg_mshr_miss_latency::total  6227.181818                       # average StoreCondReq mshr miss latency
system.cpu00.dcache.demand_avg_mshr_miss_latency::cpu00.data 52664.580872                       # average overall mshr miss latency
system.cpu00.dcache.demand_avg_mshr_miss_latency::total 52664.580872                       # average overall mshr miss latency
[...]
system.tol2bus.pkt_count_system.cpu06.dcache.mem_side::system.l2.cpu_side       323351                       # Packet count per connected master and slave (bytes)
system.tol2bus.pkt_count_system.cpu07.icache.mem_side::system.l2.cpu_side          918                       # Packet count per connected master and slave (bytes)
system.tol2bus.pkt_count_system.cpu07.dcache.mem_side::system.l2.cpu_side       339777                       # Packet count per connected master and slave (bytes)
system.tol2bus.pkt_count_system.cpu08.icache.mem_side::system.l2.cpu_side          835                       # Packet count per connected master and slave (bytes)
system.tol2bus.pkt_count_system.cpu08.dcache.mem_side::system.l2.cpu_side       355969                       # Packet count per connected master and slave (bytes)
system.tol2bus.pkt_count_system.cpu09.icache.mem_side::system.l2.cpu_side          846                       # Packet count per connected master and slave (bytes)
system.tol2bus.pkt_count_system.cpu09.dcache.mem_side::system.l2.cpu_side       321227                       # Packet count per connected master and slave (bytes)
system.tol2bus.pkt_count_system.cpu10.icache.mem_side::system.l2.cpu_side          833                       # Packet count per connected master and slave (bytes)
system.tol2bus.pkt_count_system.cpu10.dcache.mem_side::system.l2.cpu_side       344344                       # Packet count per connected master and slave (bytes)
system.tol2bus.pkt_count_system.cpu11.icache.mem_side::system.l2.cpu_side          854                       # Packet count per connected master and slave (bytes)
system.tol2bus.pkt_count_system.cpu11.dcache.mem_side::system.l2.cpu_side       355943                       # Packet count per connected master and slave (bytes)
system.tol2bus.pkt_count_system.cpu12.icache.mem_side::system.l2.cpu_side          840                       # Packet count per connected master and slave (bytes)
system.tol2bus.pkt_count_system.cpu12.dcache.mem_side::system.l2.cpu_side       375070                       # Packet count per connected master and slave (bytes)
system.tol2bus.pkt_count_system.cpu13.icache.mem_side::system.l2.cpu_side          846                       # Packet count per connected master and slave (bytes)
system.tol2bus.pkt_count_system.cpu13.dcache.mem_side::system.l2.cpu_side       332715                       # Packet count per connected master and slave (bytes)
system.tol2bus.pkt_count_system.cpu14.icache.mem_side::system.l2.cpu_side          840                       # Packet count per connected master and slave (bytes)
system.tol2bus.pkt_count_system.cpu14.dcache.mem_side::system.l2.cpu_side       353483                       # Packet count per connected master and slave (bytes)
system.tol2bus.pkt_count_system.cpu15.icache.mem_side::system.l2.cpu_side          835                       # Packet count per connected master and slave (bytes)
system.tol2bus.pkt_count_system.cpu15.dcache.mem_side::system.l2.cpu_side       371100                       # Packet count per connected master and slave (bytes)
system.tol2bus.pkt_count::total               6487803                       # Packet count per connected master and slave (bytes)
system.tol2bus.pkt_size_system.cpu00.icache.mem_side::system.l2.cpu_side       984064                       # Cumulative packet size per connected master and slave (bytes)
system.tol2bus.pkt_size_system.cpu00.dcache.mem_side::system.l2.cpu_side     44400512                       # Cumulative packet size per connected master and slave (bytes)
system.tol2bus.pkt_size_system.cpu01.icache.mem_side::system.l2.cpu_side        41792                       # Cumulative packet size per connected master and slave (bytes)
system.tol2bus.pkt_size_system.cpu01.dcache.mem_side::system.l2.cpu_side      8537728                       # Cumulative packet size per connected master and slave (bytes)
system.tol2bus.pkt_size_system.cpu02.icache.mem_side::system.l2.cpu_side        31808                       # Cumulative packet size per connected master and slave (bytes)
system.tol2bus.pkt_size_system.cpu02.dcache.mem_side::system.l2.cpu_side      8974144                       # Cumulative packet size per connected master and slave (bytes)
system.tol2bus.pkt_size_system.cpu03.icache.mem_side::system.l2.cpu_side        31936                       # Cumulative packet size per connected master and slave (bytes)
system.tol2bus.pkt_size_system.cpu03.dcache.mem_side::system.l2.cpu_side      9416384                       # Cumulative packet size per connected master and slave (bytes)
system.tol2bus.pkt_size_system.cpu04.icache.mem_side::system.l2.cpu_side        28224                       # Cumulative packet size per connected master and slave (bytes)
system.tol2bus.pkt_size_system.cpu04.dcache.mem_side::system.l2.cpu_side      9682368                       # Cumulative packet size per connected master and slave (bytes)
system.tol2bus.pkt_size_system.cpu05.icache.mem_side::system.l2.cpu_side        28544                       # Cumulative packet size per connected master and slave (bytes)
system.tol2bus.pkt_size_system.cpu05.dcache.mem_side::system.l2.cpu_side      8561472                       # Cumulative packet size per connected master and slave (bytes)
system.tol2bus.pkt_size_system.cpu06.icache.mem_side::system.l2.cpu_side        28672                       # Cumulative packet size per connected master and slave (bytes)
system.tol2bus.pkt_size_system.cpu06.dcache.mem_side::system.l2.cpu_side      9481984                       # Cumulative packet size per connected master and slave (bytes)
system.tol2bus.pkt_size_system.cpu07.icache.mem_side::system.l2.cpu_side        31424                       # Cumulative packet size per connected master and slave (bytes)
system.tol2bus.pkt_size_system.cpu07.dcache.mem_side::system.l2.cpu_side      9909312                       # Cumulative packet size per connected master and slave (bytes)
system.tol2bus.pkt_size_system.cpu08.icache.mem_side::system.l2.cpu_side        28288                       # Cumulative packet size per connected master and slave (bytes)
system.tol2bus.pkt_size_system.cpu08.dcache.mem_side::system.l2.cpu_side     10556800                       # Cumulative packet size per connected master and slave (bytes)
system.tol2bus.pkt_size_system.cpu09.icache.mem_side::system.l2.cpu_side        28672                       # Cumulative packet size per connected master and slave (bytes)
system.tol2bus.pkt_size_system.cpu09.dcache.mem_side::system.l2.cpu_side      9739264                       # Cumulative packet size per connected master and slave (bytes)
system.tol2bus.pkt_size_system.cpu10.icache.mem_side::system.l2.cpu_side        28224                       # Cumulative packet size per connected master and slave (bytes)
system.tol2bus.pkt_size_system.cpu10.dcache.mem_side::system.l2.cpu_side     10866368                       # Cumulative packet size per connected master and slave (bytes)
system.tol2bus.pkt_size_system.cpu11.icache.mem_side::system.l2.cpu_side        28928                       # Cumulative packet size per connected master and slave (bytes)
system.tol2bus.pkt_size_system.cpu11.dcache.mem_side::system.l2.cpu_side     10419392                       # Cumulative packet size per connected master and slave (bytes)
system.tol2bus.pkt_size_system.cpu12.icache.mem_side::system.l2.cpu_side        28480                       # Cumulative packet size per connected master and slave (bytes)
system.tol2bus.pkt_size_system.cpu12.dcache.mem_side::system.l2.cpu_side     11435648                       # Cumulative packet size per connected master and slave (bytes)
system.tol2bus.pkt_size_system.cpu13.icache.mem_side::system.l2.cpu_side        28672                       # Cumulative packet size per connected master and slave (bytes)
system.tol2bus.pkt_size_system.cpu13.dcache.mem_side::system.l2.cpu_side      9731584                       # Cumulative packet size per connected master and slave (bytes)
system.tol2bus.pkt_size_system.cpu14.icache.mem_side::system.l2.cpu_side        28480                       # Cumulative packet size per connected master and slave (bytes)
system.tol2bus.pkt_size_system.cpu14.dcache.mem_side::system.l2.cpu_side     10665792                       # Cumulative packet size per connected master and slave (bytes)
system.tol2bus.pkt_size_system.cpu15.icache.mem_side::system.l2.cpu_side        28288                       # Cumulative packet size per connected master and slave (bytes)
system.tol2bus.pkt_size_system.cpu15.dcache.mem_side::system.l2.cpu_side     11029376                       # Cumulative packet size per connected master and slave (bytes)
system.tol2bus.pkt_size::total              194842624                       # Cumulative packet size per connected master and slave (bytes)
system.tol2bus.snoops                          793888                       # Total snoops (count)
system.tol2bus.snoop_fanout::samples          2689881                       # Request fanout histogram
system.tol2bus.snoop_fanout::mean            0.925912                       # Request fanout histogram
system.tol2bus.snoop_fanout::stdev           2.390529                       # Request fanout histogram
system.tol2bus.snoop_fanout::underflows             0      0.00%      0.00% # Request fanout histogram
system.tol2bus.snoop_fanout::0                1798146     66.85%     66.85% # Request fanout histogram
system.tol2bus.snoop_fanout::1                 386125     14.35%     81.20% # Request fanout histogram
system.tol2bus.snoop_fanout::2                 260017      9.67%     90.87% # Request fanout histogram
system.tol2bus.snoop_fanout::3                 149801      5.57%     96.44% # Request fanout histogram
system.tol2bus.snoop_fanout::4                   5401      0.20%     96.64% # Request fanout histogram
system.tol2bus.snoop_fanout::5                   5054      0.19%     96.83% # Request fanout histogram
system.tol2bus.snoop_fanout::6                   5138      0.19%     97.02% # Request fanout histogram
system.tol2bus.snoop_fanout::7                   3785      0.14%     97.16% # Request fanout histogram
system.tol2bus.snoop_fanout::8                   4006      0.15%     97.31% # Request fanout histogram
system.tol2bus.snoop_fanout::9                   4549      0.17%     97.48% # Request fanout histogram
system.tol2bus.snoop_fanout::10                  4345      0.16%     97.64% # Request fanout histogram
system.tol2bus.snoop_fanout::11                  4135      0.15%     97.79% # Request fanout histogram
system.tol2bus.snoop_fanout::12                  4052      0.15%     97.94% # Request fanout histogram
system.tol2bus.snoop_fanout::13                  3461      0.13%     98.07% # Request fanout histogram
system.tol2bus.snoop_fanout::14                  2892      0.11%     98.18% # Request fanout histogram
system.tol2bus.snoop_fanout::15                 48778      1.81%     99.99% # Request fanout histogram
system.tol2bus.snoop_fanout::16                   196      0.01%    100.00% # Request fanout histogram
system.tol2bus.snoop_fanout::17                     0      0.00%    100.00% # Request fanout histogram
system.tol2bus.snoop_fanout::18                     0      0.00%    100.00% # Request fanout histogram
system.tol2bus.snoop_fanout::19                     0      0.00%    100.00% # Request fanout histogram
system.tol2bus.snoop_fanout::20                     0      0.00%    100.00% # Request fanout histogram
system.tol2bus.snoop_fanout::21                     0      0.00%    100.00% # Request fanout histogram
system.tol2bus.snoop_fanout::22                     0      0.00%    100.00% # Request fanout histogram
system.tol2bus.snoop_fanout::23                     0      0.00%    100.00% # Request fanout histogram
system.tol2bus.snoop_fanout::24                     0      0.00%    100.00% # Request fanout histogram
system.tol2bus.snoop_fanout::25                     0      0.00%    100.00% # Request fanout histogram
system.tol2bus.snoop_fanout::26                     0      0.00%    100.00% # Request fanout histogram
system.tol2bus.snoop_fanout::27                     0      0.00%    100.00% # Request fanout histogram
system.tol2bus.snoop_fanout::28                     0      0.00%    100.00% # Request fanout histogram
system.tol2bus.snoop_fanout::29                     0      0.00%    100.00% # Request fanout histogram
system.tol2bus.snoop_fanout::30                     0      0.00%    100.00% # Request fanout histogram
system.tol2bus.snoop_fanout::31                     0      0.00%    100.00% # Request fanout histogram
system.tol2bus.snoop_fanout::32                     0      0.00%    100.00% # Request fanout histogram
system.tol2bus.snoop_fanout::overflows              0      0.00%    100.00% # Request fanout histogram
system.tol2bus.snoop_fanout::min_value              0                       # Request fanout histogram
system.tol2bus.snoop_fanout::max_value             16                       # Request fanout histogram
system.tol2bus.snoop_fanout::total            2689881                       # Request fanout histogram
system.tol2bus.reqLayer0.occupancy         8177659753                       # Layer occupancy (ticks)
system.tol2bus.reqLayer0.utilization             15.2                       # Layer utilization (%)
system.tol2bus.respLayer0.occupancy          27901244                       # Layer occupancy (ticks)
system.tol2bus.respLayer0.utilization             0.1                       # Layer utilization (%)
system.tol2bus.respLayer1.occupancy        1738576077                       # Layer occupancy (ticks)
system.tol2bus.respLayer1.utilization             3.2                       # Layer utilization (%)
system.tol2bus.respLayer2.occupancy           1841667                       # Layer occupancy (ticks)
system.tol2bus.respLayer2.utilization             0.0                       # Layer utilization (%)
system.tol2bus.respLayer3.occupancy         374205055                       # Layer occupancy (ticks)
system.tol2bus.respLayer3.utilization             0.7                       # Layer utilization (%)
system.tol2bus.respLayer4.occupancy           1557343                       # Layer occupancy (ticks)
system.tol2bus.respLayer4.utilization             0.0                       # Layer utilization (%)
system.tol2bus.respLayer5.occupancy         391870575                       # Layer occupancy (ticks)
system.tol2bus.respLayer5.utilization             0.7                       # Layer utilization (%)
system.tol2bus.respLayer6.occupancy           1550188                       # Layer occupancy (ticks)
system.tol2bus.respLayer6.utilization             0.0                       # Layer utilization (%)
system.tol2bus.respLayer7.occupancy         410901636                       # Layer occupancy (ticks)
system.tol2bus.respLayer7.utilization             0.8                       # Layer utilization (%)
system.tol2bus.respLayer8.occupancy           1409921                       # Layer occupancy (ticks)
system.tol2bus.respLayer8.utilization             0.0                       # Layer utilization (%)
system.tol2bus.respLayer9.occupancy         429640650                       # Layer occupancy (ticks)
system.tol2bus.respLayer9.utilization             0.8                       # Layer utilization (%)
system.tol2bus.respLayer10.occupancy          1418611                       # Layer occupancy (ticks)
system.tol2bus.respLayer10.utilization            0.0                       # Layer utilization (%)
system.tol2bus.respLayer11.occupancy        391082897                       # Layer occupancy (ticks)
system.tol2bus.respLayer11.utilization            0.7                       # Layer utilization (%)
system.tol2bus.respLayer12.occupancy          1429024                       # Layer occupancy (ticks)
system.tol2bus.respLayer12.utilization            0.0                       # Layer utilization (%)
system.tol2bus.respLayer13.occupancy        414044802                       # Layer occupancy (ticks)
system.tol2bus.respLayer13.utilization            0.8                       # Layer utilization (%)
system.tol2bus.respLayer14.occupancy          1525052                       # Layer occupancy (ticks)
system.tol2bus.respLayer14.utilization            0.0                       # Layer utilization (%)
system.tol2bus.respLayer15.occupancy        433794698                       # Layer occupancy (ticks)
system.tol2bus.respLayer15.utilization            0.8                       # Layer utilization (%)
system.tol2bus.respLayer16.occupancy          1418737                       # Layer occupancy (ticks)
system.tol2bus.respLayer16.utilization            0.0                       # Layer utilization (%)
system.tol2bus.respLayer17.occupancy        453206761                       # Layer occupancy (ticks)
system.tol2bus.respLayer17.utilization            0.8                       # Layer utilization (%)
system.tol2bus.respLayer18.occupancy          1421720                       # Layer occupancy (ticks)
system.tol2bus.respLayer18.utilization            0.0                       # Layer utilization (%)
system.tol2bus.respLayer19.occupancy        409277361                       # Layer occupancy (ticks)
system.tol2bus.respLayer19.utilization            0.8                       # Layer utilization (%)
system.tol2bus.respLayer20.occupancy          1406960                       # Layer occupancy (ticks)
system.tol2bus.respLayer20.utilization            0.0                       # Layer utilization (%)
system.tol2bus.respLayer21.occupancy        434072851                       # Layer occupancy (ticks)
system.tol2bus.respLayer21.utilization            0.8                       # Layer utilization (%)
system.tol2bus.respLayer22.occupancy          1437150                       # Layer occupancy (ticks)
system.tol2bus.respLayer22.utilization            0.0                       # Layer utilization (%)
system.tol2bus.respLayer23.occupancy        455923766                       # Layer occupancy (ticks)
system.tol2bus.respLayer23.utilization            0.8                       # Layer utilization (%)
system.tol2bus.respLayer24.occupancy          1416362                       # Layer occupancy (ticks)
system.tol2bus.respLayer24.utilization            0.0                       # Layer utilization (%)
system.tol2bus.respLayer25.occupancy        477161917                       # Layer occupancy (ticks)
system.tol2bus.respLayer25.utilization            0.9                       # Layer utilization (%)
system.tol2bus.respLayer26.occupancy          1417058                       # Layer occupancy (ticks)
system.tol2bus.respLayer26.utilization            0.0                       # Layer utilization (%)
system.tol2bus.respLayer27.occupancy        427887643                       # Layer occupancy (ticks)
system.tol2bus.respLayer27.utilization            0.8                       # Layer utilization (%)
system.tol2bus.respLayer28.occupancy          1417135                       # Layer occupancy (ticks)
system.tol2bus.respLayer28.utilization            0.0                       # Layer utilization (%)
system.tol2bus.respLayer29.occupancy        451153289                       # Layer occupancy (ticks)
system.tol2bus.respLayer29.utilization            0.8                       # Layer utilization (%)
system.tol2bus.respLayer30.occupancy          1400121                       # Layer occupancy (ticks)
system.tol2bus.respLayer30.utilization            0.0                       # Layer utilization (%)
system.tol2bus.respLayer31.occupancy        475218913                       # Layer occupancy (ticks)
system.tol2bus.respLayer31.utilization            0.9                       # Layer utilization (%)

---------- End Simulation Statistics   ----------
