
---------- Begin Simulation Statistics ----------
sim_seconds                                  0.001343                       # Number of seconds simulated
sim_ticks                                  1343455254                       # Number of ticks simulated
final_tick                                 1343455254                       # Number of ticks from beginning of simulation (restored from checkpoints and never reset)
sim_freq                                 1000000000000                       # Frequency of simulated ticks
host_inst_rate                                 232386                       # Simulator instruction rate (inst/s)
host_op_rate                                   232385                       # Simulator op (including micro ops) rate (op/s)
host_tick_rate                              130498126                       # Simulator tick rate (ticks/s)
host_mem_usage                                 695080                       # Number of bytes of host memory used
host_seconds                                    10.29                       # Real time elapsed on the host
sim_insts                                     2392363                       # Number of instructions simulated
sim_ops                                       2392363                       # Number of ops (including micro ops) simulated
system.voltage_domain.voltage                       1                       # Voltage in Volts
system.clk_domain.clock                          1000                       # Clock period in ticks
system.mem_ctrls.bytes_read::cpu00.inst        123072                       # Number of bytes read from this memory
system.mem_ctrls.bytes_read::cpu00.data        378432                       # Number of bytes read from this memory
system.mem_ctrls.bytes_read::cpu01.inst         12160                       # Number of bytes read from this memory
system.mem_ctrls.bytes_read::cpu01.data          6720                       # Number of bytes read from this memory
system.mem_ctrls.bytes_read::cpu02.inst          1088                       # Number of bytes read from this memory
system.mem_ctrls.bytes_read::cpu02.data          4544                       # Number of bytes read from this memory
system.mem_ctrls.bytes_read::cpu03.inst           704                       # Number of bytes read from this memory
system.mem_ctrls.bytes_read::cpu03.data          6976                       # Number of bytes read from this memory
system.mem_ctrls.bytes_read::cpu04.inst           256                       # Number of bytes read from this memory
system.mem_ctrls.bytes_read::cpu04.data          5504                       # Number of bytes read from this memory
system.mem_ctrls.bytes_read::cpu05.inst           640                       # Number of bytes read from this memory
system.mem_ctrls.bytes_read::cpu05.data          5632                       # Number of bytes read from this memory
system.mem_ctrls.bytes_read::cpu06.inst           448                       # Number of bytes read from this memory
system.mem_ctrls.bytes_read::cpu06.data          6720                       # Number of bytes read from this memory
system.mem_ctrls.bytes_read::cpu07.inst          2176                       # Number of bytes read from this memory
system.mem_ctrls.bytes_read::cpu07.data          6528                       # Number of bytes read from this memory
system.mem_ctrls.bytes_read::cpu08.inst           256                       # Number of bytes read from this memory
system.mem_ctrls.bytes_read::cpu08.data          5120                       # Number of bytes read from this memory
system.mem_ctrls.bytes_read::cpu09.inst          1152                       # Number of bytes read from this memory
system.mem_ctrls.bytes_read::cpu09.data          6272                       # Number of bytes read from this memory
system.mem_ctrls.bytes_read::cpu10.inst          3456                       # Number of bytes read from this memory
system.mem_ctrls.bytes_read::cpu10.data          5376                       # Number of bytes read from this memory
system.mem_ctrls.bytes_read::cpu11.inst          2240                       # Number of bytes read from this memory
system.mem_ctrls.bytes_read::cpu11.data          6016                       # Number of bytes read from this memory
system.mem_ctrls.bytes_read::cpu12.inst           320                       # Number of bytes read from this memory
system.mem_ctrls.bytes_read::cpu12.data          5248                       # Number of bytes read from this memory
system.mem_ctrls.bytes_read::cpu13.inst          1600                       # Number of bytes read from this memory
system.mem_ctrls.bytes_read::cpu13.data          6144                       # Number of bytes read from this memory
system.mem_ctrls.bytes_read::cpu14.inst          4544                       # Number of bytes read from this memory
system.mem_ctrls.bytes_read::cpu14.data          6464                       # Number of bytes read from this memory
system.mem_ctrls.bytes_read::cpu15.inst           768                       # Number of bytes read from this memory
system.mem_ctrls.bytes_read::cpu15.data          4800                       # Number of bytes read from this memory
system.mem_ctrls.bytes_read::total             621376                       # Number of bytes read from this memory
system.mem_ctrls.bytes_inst_read::cpu00.inst       123072                       # Number of instructions bytes read from this memory
system.mem_ctrls.bytes_inst_read::cpu01.inst        12160                       # Number of instructions bytes read from this memory
system.mem_ctrls.bytes_inst_read::cpu02.inst         1088                       # Number of instructions bytes read from this memory
system.mem_ctrls.bytes_inst_read::cpu03.inst          704                       # Number of instructions bytes read from this memory
system.mem_ctrls.bytes_inst_read::cpu04.inst          256                       # Number of instructions bytes read from this memory
system.mem_ctrls.bytes_inst_read::cpu05.inst          640                       # Number of instructions bytes read from this memory
system.mem_ctrls.bytes_inst_read::cpu06.inst          448                       # Number of instructions bytes read from this memory
system.mem_ctrls.bytes_inst_read::cpu07.inst         2176                       # Number of instructions bytes read from this memory
system.mem_ctrls.bytes_inst_read::cpu08.inst          256                       # Number of instructions bytes read from this memory
system.mem_ctrls.bytes_inst_read::cpu09.inst         1152                       # Number of instructions bytes read from this memory
system.mem_ctrls.bytes_inst_read::cpu10.inst         3456                       # Number of instructions bytes read from this memory
system.mem_ctrls.bytes_inst_read::cpu11.inst         2240                       # Number of instructions bytes read from this memory
system.mem_ctrls.bytes_inst_read::cpu12.inst          320                       # Number of instructions bytes read from this memory
system.mem_ctrls.bytes_inst_read::cpu13.inst         1600                       # Number of instructions bytes read from this memory
system.mem_ctrls.bytes_inst_read::cpu14.inst         4544                       # Number of instructions bytes read from this memory
system.mem_ctrls.bytes_inst_read::cpu15.inst          768                       # Number of instructions bytes read from this memory
system.mem_ctrls.bytes_inst_read::total        154880                       # Number of instructions bytes read from this memory
system.mem_ctrls.bytes_written::writebacks        74944                       # Number of bytes written to this memory
system.mem_ctrls.bytes_written::total           74944                       # Number of bytes written to this memory
system.mem_ctrls.num_reads::cpu00.inst           1923                       # Number of read requests responded to by this memory
system.mem_ctrls.num_reads::cpu00.data           5913                       # Number of read requests responded to by this memory
system.mem_ctrls.num_reads::cpu01.inst            190                       # Number of read requests responded to by this memory
system.mem_ctrls.num_reads::cpu01.data            105                       # Number of read requests responded to by this memory
system.mem_ctrls.num_reads::cpu02.inst             17                       # Number of read requests responded to by this memory
system.mem_ctrls.num_reads::cpu02.data             71                       # Number of read requests responded to by this memory
system.mem_ctrls.num_reads::cpu03.inst             11                       # Number of read requests responded to by this memory
system.mem_ctrls.num_reads::cpu03.data            109                       # Number of read requests responded to by this memory
system.mem_ctrls.num_reads::cpu04.inst              4                       # Number of read requests responded to by this memory
system.mem_ctrls.num_reads::cpu04.data             86                       # Number of read requests responded to by this memory
system.mem_ctrls.num_reads::cpu05.inst             10                       # Number of read requests responded to by this memory
system.mem_ctrls.num_reads::cpu05.data             88                       # Number of read requests responded to by this memory
system.mem_ctrls.num_reads::cpu06.inst              7                       # Number of read requests responded to by this memory
system.mem_ctrls.num_reads::cpu06.data            105                       # Number of read requests responded to by this memory
system.mem_ctrls.num_reads::cpu07.inst             34                       # Number of read requests responded to by this memory
system.mem_ctrls.num_reads::cpu07.data            102                       # Number of read requests responded to by this memory
system.mem_ctrls.num_reads::cpu08.inst              4                       # Number of read requests responded to by this memory
system.mem_ctrls.num_reads::cpu08.data             80                       # Number of read requests responded to by this memory
system.mem_ctrls.num_reads::cpu09.inst             18                       # Number of read requests responded to by this memory
system.mem_ctrls.num_reads::cpu09.data             98                       # Number of read requests responded to by this memory
system.mem_ctrls.num_reads::cpu10.inst             54                       # Number of read requests responded to by this memory
system.mem_ctrls.num_reads::cpu10.data             84                       # Number of read requests responded to by this memory
system.mem_ctrls.num_reads::cpu11.inst             35                       # Number of read requests responded to by this memory
system.mem_ctrls.num_reads::cpu11.data             94                       # Number of read requests responded to by this memory
system.mem_ctrls.num_reads::cpu12.inst              5                       # Number of read requests responded to by this memory
system.mem_ctrls.num_reads::cpu12.data             82                       # Number of read requests responded to by this memory
system.mem_ctrls.num_reads::cpu13.inst             25                       # Number of read requests responded to by this memory
system.mem_ctrls.num_reads::cpu13.data             96                       # Number of read requests responded to by this memory
system.mem_ctrls.num_reads::cpu14.inst             71                       # Number of read requests responded to by this memory
system.mem_ctrls.num_reads::cpu14.data            101                       # Number of read requests responded to by this memory
system.mem_ctrls.num_reads::cpu15.inst             12                       # Number of read requests responded to by this memory
system.mem_ctrls.num_reads::cpu15.data             75                       # Number of read requests responded to by this memory
system.mem_ctrls.num_reads::total                9709                       # Number of read requests responded to by this memory
system.mem_ctrls.num_writes::writebacks          1171                       # Number of write requests responded to by this memory
system.mem_ctrls.num_writes::total               1171                       # Number of write requests responded to by this memory
system.mem_ctrls.bw_read::cpu00.inst         91608559                       # Total read bandwidth from this memory (bytes/s)
system.mem_ctrls.bw_read::cpu00.data        281685601                       # Total read bandwidth from this memory (bytes/s)
system.mem_ctrls.bw_read::cpu01.inst          9051288                       # Total read bandwidth from this memory (bytes/s)
system.mem_ctrls.bw_read::cpu01.data          5002027                       # Total read bandwidth from this memory (bytes/s)
system.mem_ctrls.bw_read::cpu02.inst           809852                       # Total read bandwidth from this memory (bytes/s)
system.mem_ctrls.bw_read::cpu02.data          3382323                       # Total read bandwidth from this memory (bytes/s)
system.mem_ctrls.bw_read::cpu03.inst           524022                       # Total read bandwidth from this memory (bytes/s)
system.mem_ctrls.bw_read::cpu03.data          5192581                       # Total read bandwidth from this memory (bytes/s)
system.mem_ctrls.bw_read::cpu04.inst           190553                       # Total read bandwidth from this memory (bytes/s)
system.mem_ctrls.bw_read::cpu04.data          4096899                       # Total read bandwidth from this memory (bytes/s)
system.mem_ctrls.bw_read::cpu05.inst           476384                       # Total read bandwidth from this memory (bytes/s)
system.mem_ctrls.bw_read::cpu05.data          4192175                       # Total read bandwidth from this memory (bytes/s)
system.mem_ctrls.bw_read::cpu06.inst           333468                       # Total read bandwidth from this memory (bytes/s)
system.mem_ctrls.bw_read::cpu06.data          5002027                       # Total read bandwidth from this memory (bytes/s)
system.mem_ctrls.bw_read::cpu07.inst          1619704                       # Total read bandwidth from this memory (bytes/s)
system.mem_ctrls.bw_read::cpu07.data          4859112                       # Total read bandwidth from this memory (bytes/s)
system.mem_ctrls.bw_read::cpu08.inst           190553                       # Total read bandwidth from this memory (bytes/s)
system.mem_ctrls.bw_read::cpu08.data          3811069                       # Total read bandwidth from this memory (bytes/s)
system.mem_ctrls.bw_read::cpu09.inst           857490                       # Total read bandwidth from this memory (bytes/s)
system.mem_ctrls.bw_read::cpu09.data          4668559                       # Total read bandwidth from this memory (bytes/s)
system.mem_ctrls.bw_read::cpu10.inst          2572471                       # Total read bandwidth from this memory (bytes/s)
system.mem_ctrls.bw_read::cpu10.data          4001622                       # Total read bandwidth from this memory (bytes/s)
system.mem_ctrls.bw_read::cpu11.inst          1667342                       # Total read bandwidth from this memory (bytes/s)
system.mem_ctrls.bw_read::cpu11.data          4478005                       # Total read bandwidth from this memory (bytes/s)
system.mem_ctrls.bw_read::cpu12.inst           238192                       # Total read bandwidth from this memory (bytes/s)
system.mem_ctrls.bw_read::cpu12.data          3906345                       # Total read bandwidth from this memory (bytes/s)
system.mem_ctrls.bw_read::cpu13.inst          1190959                       # Total read bandwidth from this memory (bytes/s)
system.mem_ctrls.bw_read::cpu13.data          4573282                       # Total read bandwidth from this memory (bytes/s)
system.mem_ctrls.bw_read::cpu14.inst          3382323                       # Total read bandwidth from this memory (bytes/s)
system.mem_ctrls.bw_read::cpu14.data          4811474                       # Total read bandwidth from this memory (bytes/s)
system.mem_ctrls.bw_read::cpu15.inst           571660                       # Total read bandwidth from this memory (bytes/s)
system.mem_ctrls.bw_read::cpu15.data          3572877                       # Total read bandwidth from this memory (bytes/s)
system.mem_ctrls.bw_read::total             462520801                       # Total read bandwidth from this memory (bytes/s)
system.mem_ctrls.bw_inst_read::cpu00.inst     91608559                       # Instruction read bandwidth from this memory (bytes/s)
system.mem_ctrls.bw_inst_read::cpu01.inst      9051288                       # Instruction read bandwidth from this memory (bytes/s)
system.mem_ctrls.bw_inst_read::cpu02.inst       809852                       # Instruction read bandwidth from this memory (bytes/s)
system.mem_ctrls.bw_inst_read::cpu03.inst       524022                       # Instruction read bandwidth from this memory (bytes/s)
system.mem_ctrls.bw_inst_read::cpu04.inst       190553                       # Instruction read bandwidth from this memory (bytes/s)
system.mem_ctrls.bw_inst_read::cpu05.inst       476384                       # Instruction read bandwidth from this memory (bytes/s)
system.mem_ctrls.bw_inst_read::cpu06.inst       333468                       # Instruction read bandwidth from this memory (bytes/s)
system.mem_ctrls.bw_inst_read::cpu07.inst      1619704                       # Instruction read bandwidth from this memory (bytes/s)
system.mem_ctrls.bw_inst_read::cpu08.inst       190553                       # Instruction read bandwidth from this memory (bytes/s)
system.mem_ctrls.bw_inst_read::cpu09.inst       857490                       # Instruction read bandwidth from this memory (bytes/s)
system.mem_ctrls.bw_inst_read::cpu10.inst      2572471                       # Instruction read bandwidth from this memory (bytes/s)
system.mem_ctrls.bw_inst_read::cpu11.inst      1667342                       # Instruction read bandwidth from this memory (bytes/s)
system.mem_ctrls.bw_inst_read::cpu12.inst       238192                       # Instruction read bandwidth from this memory (bytes/s)
system.mem_ctrls.bw_inst_read::cpu13.inst      1190959                       # Instruction read bandwidth from this memory (bytes/s)
system.mem_ctrls.bw_inst_read::cpu14.inst      3382323                       # Instruction read bandwidth from this memory (bytes/s)
system.mem_ctrls.bw_inst_read::cpu15.inst       571660                       # Instruction read bandwidth from this memory (bytes/s)
system.mem_ctrls.bw_inst_read::total        115284822                       # Instruction read bandwidth from this memory (bytes/s)
system.mem_ctrls.bw_write::writebacks        55784515                       # Write bandwidth from this memory (bytes/s)
system.mem_ctrls.bw_write::total             55784515                       # Write bandwidth from this memory (bytes/s)
system.mem_ctrls.bw_total::writebacks        55784515                       # Total bandwidth to/from this memory (bytes/s)
system.mem_ctrls.bw_total::cpu00.inst        91608559                       # Total bandwidth to/from this memory (bytes/s)
system.mem_ctrls.bw_total::cpu00.data       281685601                       # Total bandwidth to/from this memory (bytes/s)
system.mem_ctrls.bw_total::cpu01.inst         9051288                       # Total bandwidth to/from this memory (bytes/s)
system.mem_ctrls.bw_total::cpu01.data         5002027                       # Total bandwidth to/from this memory (bytes/s)
system.mem_ctrls.bw_total::cpu02.inst          809852                       # Total bandwidth to/from this memory (bytes/s)
system.mem_ctrls.bw_total::cpu02.data         3382323                       # Total bandwidth to/from this memory (bytes/s)
system.mem_ctrls.bw_total::cpu03.inst          524022                       # Total bandwidth to/from this memory (bytes/s)
system.mem_ctrls.bw_total::cpu03.data         5192581                       # Total bandwidth to/from this memory (bytes/s)
system.mem_ctrls.bw_total::cpu04.inst          190553                       # Total bandwidth to/from this memory (bytes/s)
system.mem_ctrls.bw_total::cpu04.data         4096899                       # Total bandwidth to/from this memory (bytes/s)
system.mem_ctrls.bw_total::cpu05.inst          476384                       # Total bandwidth to/from this memory (bytes/s)
system.mem_ctrls.bw_total::cpu05.data         4192175                       # Total bandwidth to/from this memory (bytes/s)
system.mem_ctrls.bw_total::cpu06.inst          333468                       # Total bandwidth to/from this memory (bytes/s)
system.mem_ctrls.bw_total::cpu06.data         5002027                       # Total bandwidth to/from this memory (bytes/s)
system.mem_ctrls.bw_total::cpu07.inst         1619704                       # Total bandwidth to/from this memory (bytes/s)
system.mem_ctrls.bw_total::cpu07.data         4859112                       # Total bandwidth to/from this memory (bytes/s)
system.mem_ctrls.bw_total::cpu08.inst          190553                       # Total bandwidth to/from this memory (bytes/s)
system.mem_ctrls.bw_total::cpu08.data         3811069                       # Total bandwidth to/from this memory (bytes/s)
system.mem_ctrls.bw_total::cpu09.inst          857490                       # Total bandwidth to/from this memory (bytes/s)
system.mem_ctrls.bw_total::cpu09.data         4668559                       # Total bandwidth to/from this memory (bytes/s)
system.mem_ctrls.bw_total::cpu10.inst         2572471                       # Total bandwidth to/from this memory (bytes/s)
system.mem_ctrls.bw_total::cpu10.data         4001622                       # Total bandwidth to/from this memory (bytes/s)
system.mem_ctrls.bw_total::cpu11.inst         1667342                       # Total bandwidth to/from this memory (bytes/s)
system.mem_ctrls.bw_total::cpu11.data         4478005                       # Total bandwidth to/from this memory (bytes/s)
system.mem_ctrls.bw_total::cpu12.inst          238192                       # Total bandwidth to/from this memory (bytes/s)
system.mem_ctrls.bw_total::cpu12.data         3906345                       # Total bandwidth to/from this memory (bytes/s)
system.mem_ctrls.bw_total::cpu13.inst         1190959                       # Total bandwidth to/from this memory (bytes/s)
system.mem_ctrls.bw_total::cpu13.data         4573282                       # Total bandwidth to/from this memory (bytes/s)
system.mem_ctrls.bw_total::cpu14.inst         3382323                       # Total bandwidth to/from this memory (bytes/s)
system.mem_ctrls.bw_total::cpu14.data         4811474                       # Total bandwidth to/from this memory (bytes/s)
system.mem_ctrls.bw_total::cpu15.inst          571660                       # Total bandwidth to/from this memory (bytes/s)
system.mem_ctrls.bw_total::cpu15.data         3572877                       # Total bandwidth to/from this memory (bytes/s)
system.mem_ctrls.bw_total::total            518305316                       # Total bandwidth to/from this memory (bytes/s)
system.cpu00.branchPred.lookups                132015                       # Number of BP lookups
system.cpu00.branchPred.condPredicted           73493                       # Number of conditional branches predicted
system.cpu00.branchPred.condIncorrect            5663                       # Number of conditional branches incorrect
system.cpu00.branchPred.BTBLookups              86865                       # Number of BTB lookups
system.cpu00.branchPred.BTBHits                 66241                       # Number of BTB hits
system.cpu00.branchPred.BTBCorrect                  0                       # Number of correct BTB predictions (this stat may not work properly.
system.cpu00.branchPred.BTBHitPct           76.257411                       # BTB Hit Percentage
system.cpu00.branchPred.usedRAS                 26415                       # Number of times the RAS was used to get a target.
system.cpu00.branchPred.RASInCorrect               81                       # Number of incorrect RAS predictions.
system.cpu00.branchPred.indirectLookups          3624                       # Number of indirect predictor lookups.
system.cpu00.branchPred.indirectHits             2884                       # Number of indirect target hits.
system.cpu00.branchPred.indirectMisses            740                       # Number of indirect misses.
system.cpu00.branchPredindirectMispredicted          255                       # Number of mispredicted indirect branches.
system.cpu_voltage_domain.voltage                   1                       # Voltage in Volts
system.cpu_clk_domain.clock                      1242                       # Clock period in ticks
system.cpu00.dtb.fetch_hits                         0                       # ITB hits
system.cpu00.dtb.fetch_misses                       0                       # ITB misses
system.cpu00.dtb.fetch_acv                          0                       # ITB acv
system.cpu00.dtb.fetch_accesses                     0                       # ITB accesses
system.cpu00.dtb.read_hits                     179969                       # DTB read hits
system.cpu00.dtb.read_misses                      627                       # DTB read misses
system.cpu00.dtb.read_acv                           0                       # DTB read access violations
system.cpu00.dtb.read_accesses                 180596                       # DTB read accesses
system.cpu00.dtb.write_hits                    127409                       # DTB write hits
system.cpu00.dtb.write_misses                    1131                       # DTB write misses
system.cpu00.dtb.write_acv                          0                       # DTB write access violations
system.cpu00.dtb.write_accesses                128540                       # DTB write accesses
system.cpu00.dtb.data_hits                     307378                       # DTB hits
system.cpu00.dtb.data_misses                     1758                       # DTB misses
system.cpu00.dtb.data_acv                           0                       # DTB access violations
system.cpu00.dtb.data_accesses                 309136                       # DTB accesses
system.cpu00.itb.fetch_hits                    148705                       # ITB hits
system.cpu00.itb.fetch_misses                     157                       # ITB misses
system.cpu00.itb.fetch_acv                          0                       # ITB acv
system.cpu00.itb.fetch_accesses                148862                       # ITB accesses
system.cpu00.itb.read_hits                          0                       # DTB read hits
system.cpu00.itb.read_misses                        0                       # DTB read misses
system.cpu00.itb.read_acv                           0                       # DTB read access violations
system.cpu00.itb.read_accesses                      0                       # DTB read accesses
system.cpu00.itb.write_hits                         0                       # DTB write hits
system.cpu00.itb.write_misses                       0                       # DTB write misses
system.cpu00.itb.write_acv                          0                       # DTB write access violations
system.cpu00.itb.write_accesses                     0                       # DTB write accesses
system.cpu00.itb.data_hits                          0                       # DTB hits
system.cpu00.itb.data_misses                        0                       # DTB misses
system.cpu00.itb.data_acv                           0                       # DTB access violations
system.cpu00.itb.data_accesses                      0                       # DTB accesses
system.cpu00.workload.num_syscalls               2642                       # Number of system calls
system.cpu00.numCycles                         995152                       # number of cpu cycles simulated
system.cpu00.numWorkItemsStarted                    0                       # number of work items this cpu started
system.cpu00.numWorkItemsCompleted                  0                       # number of work items this cpu completed
system.cpu00.fetch.icacheStallCycles            86519                       # Number of cycles fetch is stalled on an Icache miss
system.cpu00.fetch.Insts                      1185914                       # Number of instructions fetch has processed
system.cpu00.fetch.Branches                    132015                       # Number of branches that fetch encountered
system.cpu00.fetch.predictedBranches            95540                       # Number of branches that fetch has predicted taken
system.cpu00.fetch.Cycles                      699317                       # Number of cycles fetch has run and was not squashing or blocked
system.cpu00.fetch.SquashCycles                 12676                       # Number of cycles fetch has spent squashing
system.cpu00.fetch.MiscStallCycles                522                       # Number of cycles fetch has spent waiting on interrupts, or bad addresses, or out of MSHRs
system.cpu00.fetch.PendingTrapStallCycles         6207                       # Number of stall cycles due to pending traps
system.cpu00.fetch.IcacheWaitRetryStallCycles          549                       # Number of stall cycles due to full MSHR
system.cpu00.fetch.CacheLines                  148705                       # Number of cache lines fetched
system.cpu00.fetch.IcacheSquashes                2648                       # Number of outstanding Icache misses that were squashed
system.cpu00.fetch.rateDist::samples           799452                       # Number of instructions fetched each cycle (Total)
system.cpu00.fetch.rateDist::mean            1.483409                       # Number of instructions fetched each cycle (Total)
system.cpu00.fetch.rateDist::stdev           2.741509                       # Number of instructions fetched each cycle (Total)
system.cpu00.fetch.rateDist::underflows             0      0.00%      0.00% # Number of instructions fetched each cycle (Total)
system.cpu00.fetch.rateDist::0                 582492     72.86%     72.86% # Number of instructions fetched each cycle (Total)
system.cpu00.fetch.rateDist::1                  16365      2.05%     74.91% # Number of instructions fetched each cycle (Total)
system.cpu00.fetch.rateDist::2                  17279      2.16%     77.07% # Number of instructions fetched each cycle (Total)
system.cpu00.fetch.rateDist::3                  16835      2.11%     79.18% # Number of instructions fetched each cycle (Total)
system.cpu00.fetch.rateDist::4                  37918      4.74%     83.92% # Number of instructions fetched each cycle (Total)
system.cpu00.fetch.rateDist::5                  15666      1.96%     85.88% # Number of instructions fetched each cycle (Total)
system.cpu00.fetch.rateDist::6                  18701      2.34%     88.22% # Number of instructions fetched each cycle (Total)
system.cpu00.fetch.rateDist::7                  11290      1.41%     89.63% # Number of instructions fetched each cycle (Total)
system.cpu00.fetch.rateDist::8                  82906     10.37%    100.00% # Number of instructions fetched each cycle (Total)
system.cpu00.fetch.rateDist::overflows              0      0.00%    100.00% # Number of instructions fetched each cycle (Total)
system.cpu00.fetch.rateDist::min_value              0                       # Number of instructions fetched each cycle (Total)
system.cpu00.fetch.rateDist::max_value              8                       # Number of instructions fetched each cycle (Total)
system.cpu00.fetch.rateDist::total             799452                       # Number of instructions fetched each cycle (Total)
system.cpu00.fetch.branchRate                0.132658                       # Number of branch fetches per cycle
system.cpu00.fetch.rate                      1.191691                       # Number of inst fetches per cycle
system.cpu00.decode.IdleCycles                  92850                       # Number of cycles decode is idle
system.cpu00.decode.BlockedCycles              539226                       # Number of cycles decode is blocked
system.cpu00.decode.RunCycles                  129842                       # Number of cycles decode is running
system.cpu00.decode.UnblockCycles               32917                       # Number of cycles decode is unblocking
system.cpu00.decode.SquashCycles                 4617                       # Number of cycles decode is squashing
system.cpu00.decode.BranchResolved              26417                       # Number of times decode resolved a branch
system.cpu00.decode.BranchMispred                1750                       # Number of times decode detected a branch misprediction
system.cpu00.decode.DecodedInsts              1123181                       # Number of instructions handled by decode
system.cpu00.decode.SquashedInsts                7297                       # Number of squashed instructions handled by decode
system.cpu00.rename.SquashCycles                 4617                       # Number of cycles rename is squashing
system.cpu00.rename.IdleCycles                 108612                       # Number of cycles rename is idle
system.cpu00.rename.BlockCycles                 82119                       # Number of cycles rename is blocking
system.cpu00.rename.serializeStallCycles       214867                       # count of cycles rename stalled for serializing inst
system.cpu00.rename.RunCycles                  147133                       # Number of cycles rename is running
system.cpu00.rename.UnblockCycles              242104                       # Number of cycles rename is unblocking
system.cpu00.rename.RenamedInsts              1104134                       # Number of instructions processed by rename
system.cpu00.rename.ROBFullEvents                2602                       # Number of times rename has blocked due to ROB full
system.cpu00.rename.IQFullEvents                21959                       # Number of times rename has blocked due to IQ full
system.cpu00.rename.LQFullEvents                 2044                       # Number of times rename has blocked due to LQ full
system.cpu00.rename.SQFullEvents               207455                       # Number of times rename has blocked due to SQ full
system.cpu00.rename.RenamedOperands            756906                       # Number of destination operands rename has renamed
system.cpu00.rename.RenameLookups             1366795                       # Number of register rename lookups that rename has made
system.cpu00.rename.int_rename_lookups        1208677                       # Number of integer rename lookups
system.cpu00.rename.fp_rename_lookups          155831                       # Number of floating rename lookups
system.cpu00.rename.CommittedMaps              668887                       # Number of HB maps that are committed
system.cpu00.rename.UndoneMaps                  88019                       # Number of HB maps that are undone due to squashing
system.cpu00.rename.serializingInsts             4018                       # count of serializing insts renamed
system.cpu00.rename.tempSerializingInsts         1655                       # count of temporary serializing insts renamed
system.cpu00.rename.skidInsts                  146608                       # count of insts added to the skid buffer
system.cpu00.memDep0.insertedLoads             179295                       # Number of loads inserted to the mem dependence unit.
system.cpu00.memDep0.insertedStores            134931                       # Number of stores inserted to the mem dependence unit.
system.cpu00.memDep0.conflictingLoads           31917                       # Number of conflicting loads.
system.cpu00.memDep0.conflictingStores          11998                       # Number of conflicting stores.
system.cpu00.iq.iqInstsAdded                   967091                       # Number of instructions added to the IQ (excludes non-spec)
system.cpu00.iq.iqNonSpecInstsAdded              2733                       # Number of non-speculative instructions added to the IQ
system.cpu00.iq.iqInstsIssued                  950248                       # Number of instructions issued
system.cpu00.iq.iqSquashedInstsIssued            1641                       # Number of squashed instructions issued
system.cpu00.iq.iqSquashedInstsExamined         99854                       # Number of squashed instructions iterated over during squash; mainly for profiling
system.cpu00.iq.iqSquashedOperandsExamined        50205                       # Number of squashed operands that are examined and possibly removed from graph
system.cpu00.iq.iqSquashedNonSpecRemoved          356                       # Number of squashed non-spec instructions that were removed
system.cpu00.iq.issued_per_cycle::samples       799452                       # Number of insts issued each cycle
system.cpu00.iq.issued_per_cycle::mean       1.188624                       # Number of insts issued each cycle
system.cpu00.iq.issued_per_cycle::stdev      1.948685                       # Number of insts issued each cycle
system.cpu00.iq.issued_per_cycle::underflows            0      0.00%      0.00% # Number of insts issued each cycle
system.cpu00.iq.issued_per_cycle::0            502583     62.87%     62.87% # Number of insts issued each cycle
system.cpu00.iq.issued_per_cycle::1             73302      9.17%     72.03% # Number of insts issued each cycle
system.cpu00.iq.issued_per_cycle::2             60471      7.56%     79.60% # Number of insts issued each cycle
system.cpu00.iq.issued_per_cycle::3             44961      5.62%     85.22% # Number of insts issued each cycle
system.cpu00.iq.issued_per_cycle::4             43355      5.42%     90.65% # Number of insts issued each cycle
system.cpu00.iq.issued_per_cycle::5             28346      3.55%     94.19% # Number of insts issued each cycle
system.cpu00.iq.issued_per_cycle::6             26938      3.37%     97.56% # Number of insts issued each cycle
system.cpu00.iq.issued_per_cycle::7             11625      1.45%     99.02% # Number of insts issued each cycle
system.cpu00.iq.issued_per_cycle::8              7871      0.98%    100.00% # Number of insts issued each cycle
system.cpu00.iq.issued_per_cycle::overflows            0      0.00%    100.00% # Number of insts issued each cycle
system.cpu00.iq.issued_per_cycle::min_value            0                       # Number of insts issued each cycle
system.cpu00.iq.issued_per_cycle::max_value            8                       # Number of insts issued each cycle
system.cpu00.iq.issued_per_cycle::total        799452                       # Number of insts issued each cycle
system.cpu00.iq.fu_full::No_OpClass                 0      0.00%      0.00% # attempts to use FU when none available
system.cpu00.iq.fu_full::IntAlu                  4916     16.21%     16.21% # attempts to use FU when none available
system.cpu00.iq.fu_full::IntMult                 4097     13.51%     29.71% # attempts to use FU when none available
system.cpu00.iq.fu_full::IntDiv                     0      0.00%     29.71% # attempts to use FU when none available
system.cpu00.iq.fu_full::FloatAdd                  63      0.21%     29.92% # attempts to use FU when none available
system.cpu00.iq.fu_full::FloatCmp                   0      0.00%     29.92% # attempts to use FU when none available
system.cpu00.iq.fu_full::FloatCvt                   0      0.00%     29.92% # attempts to use FU when none available
system.cpu00.iq.fu_full::FloatMult               5899     19.45%     49.37% # attempts to use FU when none available
system.cpu00.iq.fu_full::FloatDiv                   0      0.00%     49.37% # attempts to use FU when none available
system.cpu00.iq.fu_full::FloatSqrt                  0      0.00%     49.37% # attempts to use FU when none available
system.cpu00.iq.fu_full::SimdAdd                    0      0.00%     49.37% # attempts to use FU when none available
system.cpu00.iq.fu_full::SimdAddAcc                 0      0.00%     49.37% # attempts to use FU when none available
system.cpu00.iq.fu_full::SimdAlu                    0      0.00%     49.37% # attempts to use FU when none available
system.cpu00.iq.fu_full::SimdCmp                    0      0.00%     49.37% # attempts to use FU when none available
system.cpu00.iq.fu_full::SimdCvt                    0      0.00%     49.37% # attempts to use FU when none available
system.cpu00.iq.fu_full::SimdMisc                   0      0.00%     49.37% # attempts to use FU when none available
system.cpu00.iq.fu_full::SimdMult                   0      0.00%     49.37% # attempts to use FU when none available
system.cpu00.iq.fu_full::SimdMultAcc                0      0.00%     49.37% # attempts to use FU when none available
system.cpu00.iq.fu_full::SimdShift                  0      0.00%     49.37% # attempts to use FU when none available
system.cpu00.iq.fu_full::SimdShiftAcc               0      0.00%     49.37% # attempts to use FU when none available
system.cpu00.iq.fu_full::SimdSqrt                   0      0.00%     49.37% # attempts to use FU when none available
system.cpu00.iq.fu_full::SimdFloatAdd               0      0.00%     49.37% # attempts to use FU when none available
system.cpu00.iq.fu_full::SimdFloatAlu               0      0.00%     49.37% # attempts to use FU when none available
system.cpu00.iq.fu_full::SimdFloatCmp               0      0.00%     49.37% # attempts to use FU when none available
system.cpu00.iq.fu_full::SimdFloatCvt               0      0.00%     49.37% # attempts to use FU when none available
system.cpu00.iq.fu_full::SimdFloatDiv               0      0.00%     49.37% # attempts to use FU when none available
system.cpu00.iq.fu_full::SimdFloatMisc              0      0.00%     49.37% # attempts to use FU when none available
system.cpu00.iq.fu_full::SimdFloatMult              0      0.00%     49.37% # attempts to use FU when none available
system.cpu00.iq.fu_full::SimdFloatMultAcc            0      0.00%     49.37% # attempts to use FU when none available
system.cpu00.iq.fu_full::SimdFloatSqrt              0      0.00%     49.37% # attempts to use FU when none available
system.cpu00.iq.fu_full::MemRead                 9470     31.22%     80.59% # attempts to use FU when none available
system.cpu00.iq.fu_full::MemWrite                5887     19.41%    100.00% # attempts to use FU when none available
system.cpu00.iq.fu_full::IprAccess                  0      0.00%    100.00% # attempts to use FU when none available
system.cpu00.iq.fu_full::InstPrefetch               0      0.00%    100.00% # attempts to use FU when none available
system.cpu00.iq.FU_type_0::No_OpClass               0      0.00%      0.00% # Type of FU issued
system.cpu00.iq.FU_type_0::IntAlu              550757     57.96%     57.96% # Type of FU issued
system.cpu00.iq.FU_type_0::IntMult              12787      1.35%     59.30% # Type of FU issued
system.cpu00.iq.FU_type_0::IntDiv                   0      0.00%     59.30% # Type of FU issued
system.cpu00.iq.FU_type_0::FloatAdd             35720      3.76%     63.06% # Type of FU issued
system.cpu00.iq.FU_type_0::FloatCmp                 8      0.00%     63.06% # Type of FU issued
system.cpu00.iq.FU_type_0::FloatCvt                 0      0.00%     63.06% # Type of FU issued
system.cpu00.iq.FU_type_0::FloatMult            37109      3.91%     66.97% # Type of FU issued
system.cpu00.iq.FU_type_0::FloatDiv                16      0.00%     66.97% # Type of FU issued
system.cpu00.iq.FU_type_0::FloatSqrt                0      0.00%     66.97% # Type of FU issued
system.cpu00.iq.FU_type_0::SimdAdd                  0      0.00%     66.97% # Type of FU issued
system.cpu00.iq.FU_type_0::SimdAddAcc               0      0.00%     66.97% # Type of FU issued
system.cpu00.iq.FU_type_0::SimdAlu                  0      0.00%     66.97% # Type of FU issued
system.cpu00.iq.FU_type_0::SimdCmp                  0      0.00%     66.97% # Type of FU issued
system.cpu00.iq.FU_type_0::SimdCvt                  0      0.00%     66.97% # Type of FU issued
system.cpu00.iq.FU_type_0::SimdMisc                 0      0.00%     66.97% # Type of FU issued
system.cpu00.iq.FU_type_0::SimdMult                 0      0.00%     66.97% # Type of FU issued
system.cpu00.iq.FU_type_0::SimdMultAcc              0      0.00%     66.97% # Type of FU issued
system.cpu00.iq.FU_type_0::SimdShift                0      0.00%     66.97% # Type of FU issued
system.cpu00.iq.FU_type_0::SimdShiftAcc             0      0.00%     66.97% # Type of FU issued
system.cpu00.iq.FU_type_0::SimdSqrt                 0      0.00%     66.97% # Type of FU issued
system.cpu00.iq.FU_type_0::SimdFloatAdd             0      0.00%     66.97% # Type of FU issued
system.cpu00.iq.FU_type_0::SimdFloatAlu             0      0.00%     66.97% # Type of FU issued
system.cpu00.iq.FU_type_0::SimdFloatCmp             0      0.00%     66.97% # Type of FU issued
system.cpu00.iq.FU_type_0::SimdFloatCvt             0      0.00%     66.97% # Type of FU issued
system.cpu00.iq.FU_type_0::SimdFloatDiv             0      0.00%     66.97% # Type of FU issued
system.cpu00.iq.FU_type_0::SimdFloatMisc            0      0.00%     66.97% # Type of FU issued
system.cpu00.iq.FU_type_0::SimdFloatMult            0      0.00%     66.97% # Type of FU issued
system.cpu00.iq.FU_type_0::SimdFloatMultAcc            0      0.00%     66.97% # Type of FU issued
system.cpu00.iq.FU_type_0::SimdFloatSqrt            0      0.00%     66.97% # Type of FU issued
system.cpu00.iq.FU_type_0::MemRead             183810     19.34%     86.32% # Type of FU issued
system.cpu00.iq.FU_type_0::MemWrite            130041     13.68%    100.00% # Type of FU issued
system.cpu00.iq.FU_type_0::IprAccess                0      0.00%    100.00% # Type of FU issued
system.cpu00.iq.FU_type_0::InstPrefetch             0      0.00%    100.00% # Type of FU issued
system.cpu00.iq.FU_type_0::total               950248                       # Type of FU issued
system.cpu00.iq.rate                         0.954877                       # Inst issue rate
system.cpu00.iq.fu_busy_cnt                     30332                       # FU busy when requested
system.cpu00.iq.fu_busy_rate                 0.031920                       # FU busy rate (busy events/executed inst)
system.cpu00.iq.int_inst_queue_reads          2488490                       # Number of integer instruction queue reads
system.cpu00.iq.int_inst_queue_writes          946761                       # Number of integer instruction queue writes
system.cpu00.iq.int_inst_queue_wakeup_accesses       813012                       # Number of integer instruction queue wakeup accesses
system.cpu00.iq.fp_inst_queue_reads            243431                       # Number of floating instruction queue reads
system.cpu00.iq.fp_inst_queue_writes           123332                       # Number of floating instruction queue writes
system.cpu00.iq.fp_inst_queue_wakeup_accesses       116959                       # Number of floating instruction queue wakeup accesses
system.cpu00.iq.int_alu_accesses               855544                       # Number of integer alu accesses
system.cpu00.iq.fp_alu_accesses                125036                       # Number of floating point alu accesses
system.cpu00.iew.lsq.thread0.forwLoads          21088                       # Number of loads that had data forwarded from stores
system.cpu00.iew.lsq.thread0.invAddrLoads            0                       # Number of loads ignored due to an invalid address
system.cpu00.iew.lsq.thread0.squashedLoads        18306                       # Number of loads squashed
system.cpu00.iew.lsq.thread0.ignoredResponses           82                       # Number of memory responses ignored because the instruction is squashed
system.cpu00.iew.lsq.thread0.memOrderViolation          422                       # Number of memory ordering violations
system.cpu00.iew.lsq.thread0.squashedStores        15404                       # Number of stores squashed
system.cpu00.iew.lsq.thread0.invAddrSwpfs            0                       # Number of software prefetches ignored due to an invalid address
system.cpu00.iew.lsq.thread0.blockedLoads            0                       # Number of blocked loads due to partial load-store forwarding
system.cpu00.iew.lsq.thread0.rescheduledLoads          220                       # Number of loads that were rescheduled
system.cpu00.iew.lsq.thread0.cacheBlocked         8853                       # Number of times an access to memory failed due to the cache being blocked
system.cpu00.iew.iewIdleCycles                      0                       # Number of cycles IEW is idle
system.cpu00.iew.iewSquashCycles                 4617                       # Number of cycles IEW is squashing
system.cpu00.iew.iewBlockCycles                 21941                       # Number of cycles IEW is blocking
system.cpu00.iew.iewUnblockCycles               52708                       # Number of cycles IEW is unblocking
system.cpu00.iew.iewDispatchedInsts           1077352                       # Number of instructions dispatched to IQ
system.cpu00.iew.iewDispSquashedInsts            1445                       # Number of squashed instructions skipped by dispatch
system.cpu00.iew.iewDispLoadInsts              179295                       # Number of dispatched load instructions
system.cpu00.iew.iewDispStoreInsts             134931                       # Number of dispatched store instructions
system.cpu00.iew.iewDispNonSpecInsts             1568                       # Number of dispatched non-speculative instructions
system.cpu00.iew.iewIQFullEvents                  112                       # Number of times the IQ has become full, causing a stall
system.cpu00.iew.iewLSQFullEvents               52514                       # Number of times the LSQ has become full, causing a stall
system.cpu00.iew.memOrderViolationEvents          422                       # Number of memory order violations
system.cpu00.iew.predictedTakenIncorrect         1581                       # Number of branches that were predicted taken incorrectly
system.cpu00.iew.predictedNotTakenIncorrect         3115                       # Number of branches that were predicted not taken incorrectly
system.cpu00.iew.branchMispredicts               4696                       # Number of branch mispredicts detected at execute
system.cpu00.iew.iewExecutedInsts              942796                       # Number of executed instructions
system.cpu00.iew.iewExecLoadInsts              180616                       # Number of load instructions executed
system.cpu00.iew.iewExecSquashedInsts            7452                       # Number of squashed instructions skipped in execute
system.cpu00.iew.exec_swp                           0                       # number of swp insts executed
system.cpu00.iew.exec_nop                      107528                       # number of nop insts executed
system.cpu00.iew.exec_refs                     309164                       # number of memory reference insts executed
system.cpu00.iew.exec_branches                 110337                       # Number of branches executed
system.cpu00.iew.exec_stores                   128548                       # Number of stores executed
system.cpu00.iew.exec_rate                   0.947389                       # Inst execution rate
system.cpu00.iew.wb_sent                       933686                       # cumulative count of insts sent to commit
system.cpu00.iew.wb_count                      929971                       # cumulative count of insts written-back
system.cpu00.iew.wb_producers                  545257                       # num instructions producing a value
system.cpu00.iew.wb_consumers                  776622                       # num instructions consuming a value
system.cpu00.iew.wb_rate                     0.934501                       # insts written-back per cycle
system.cpu00.iew.wb_fanout                   0.702088                       # average fanout of values written-back
system.cpu00.commit.commitSquashedInsts        103973                       # The number of squashed insts skipped by commit
system.cpu00.commit.commitNonSpecStalls          2377                       # The number of times commit has been forced to stall to communicate backwards
system.cpu00.commit.branchMispredicts            3942                       # The number of times a branch was mispredicted
system.cpu00.commit.committed_per_cycle::samples       783114                       # Number of insts commited each cycle
system.cpu00.commit.committed_per_cycle::mean     1.236875                       # Number of insts commited each cycle
system.cpu00.commit.committed_per_cycle::stdev     2.324255                       # Number of insts commited each cycle
system.cpu00.commit.committed_per_cycle::underflows            0      0.00%      0.00% # Number of insts commited each cycle
system.cpu00.commit.committed_per_cycle::0       534770     68.29%     68.29% # Number of insts commited each cycle
system.cpu00.commit.committed_per_cycle::1        51395      6.56%     74.85% # Number of insts commited each cycle
system.cpu00.commit.committed_per_cycle::2        51327      6.55%     81.40% # Number of insts commited each cycle
system.cpu00.commit.committed_per_cycle::3        30094      3.84%     85.25% # Number of insts commited each cycle
system.cpu00.commit.committed_per_cycle::4        35574      4.54%     89.79% # Number of insts commited each cycle
system.cpu00.commit.committed_per_cycle::5         8944      1.14%     90.93% # Number of insts commited each cycle
system.cpu00.commit.committed_per_cycle::6        12890      1.65%     92.58% # Number of insts commited each cycle
system.cpu00.commit.committed_per_cycle::7         5033      0.64%     93.22% # Number of insts commited each cycle
system.cpu00.commit.committed_per_cycle::8        53087      6.78%    100.00% # Number of insts commited each cycle
system.cpu00.commit.committed_per_cycle::overflows            0      0.00%    100.00% # Number of insts commited each cycle
system.cpu00.commit.committed_per_cycle::min_value            0                       # Number of insts commited each cycle
system.cpu00.commit.committed_per_cycle::max_value            8                       # Number of insts commited each cycle
system.cpu00.commit.committed_per_cycle::total       783114                       # Number of insts commited each cycle
system.cpu00.commit.committedInsts             968614                       # Number of instructions committed
system.cpu00.commit.committedOps               968614                       # Number of ops (including micro ops) committed
system.cpu00.commit.swp_count                       0                       # Number of s/w prefetches committed
system.cpu00.commit.refs                       280516                       # Number of memory references committed
system.cpu00.commit.loads                      160989                       # Number of loads committed
system.cpu00.commit.membars                      1038                       # Number of memory barriers committed
system.cpu00.commit.branches                   100137                       # Number of branches committed
system.cpu00.commit.fp_insts                   116058                       # Number of committed floating point instructions.
system.cpu00.commit.int_insts                  792095                       # Number of committed integer instructions.
system.cpu00.commit.function_calls              22224                       # Number of function calls committed.
system.cpu00.commit.op_class_0::No_OpClass        98645     10.18%     10.18% # Class of committed instruction
system.cpu00.commit.op_class_0::IntAlu         503288     51.96%     62.14% # Class of committed instruction
system.cpu00.commit.op_class_0::IntMult         12689      1.31%     63.45% # Class of committed instruction
system.cpu00.commit.op_class_0::IntDiv              0      0.00%     63.45% # Class of committed instruction
system.cpu00.commit.op_class_0::FloatAdd        35480      3.66%     67.12% # Class of committed instruction
system.cpu00.commit.op_class_0::FloatCmp            8      0.00%     67.12% # Class of committed instruction
system.cpu00.commit.op_class_0::FloatCvt            0      0.00%     67.12% # Class of committed instruction
system.cpu00.commit.op_class_0::FloatMult        36935      3.81%     70.93% # Class of committed instruction
system.cpu00.commit.op_class_0::FloatDiv           14      0.00%     70.93% # Class of committed instruction
system.cpu00.commit.op_class_0::FloatSqrt            0      0.00%     70.93% # Class of committed instruction
system.cpu00.commit.op_class_0::SimdAdd             0      0.00%     70.93% # Class of committed instruction
system.cpu00.commit.op_class_0::SimdAddAcc            0      0.00%     70.93% # Class of committed instruction
system.cpu00.commit.op_class_0::SimdAlu             0      0.00%     70.93% # Class of committed instruction
system.cpu00.commit.op_class_0::SimdCmp             0      0.00%     70.93% # Class of committed instruction
system.cpu00.commit.op_class_0::SimdCvt             0      0.00%     70.93% # Class of committed instruction
system.cpu00.commit.op_class_0::SimdMisc            0      0.00%     70.93% # Class of committed instruction
system.cpu00.commit.op_class_0::SimdMult            0      0.00%     70.93% # Class of committed instruction
system.cpu00.commit.op_class_0::SimdMultAcc            0      0.00%     70.93% # Class of committed instruction
system.cpu00.commit.op_class_0::SimdShift            0      0.00%     70.93% # Class of committed instruction
system.cpu00.commit.op_class_0::SimdShiftAcc            0      0.00%     70.93% # Class of committed instruction
system.cpu00.commit.op_class_0::SimdSqrt            0      0.00%     70.93% # Class of committed instruction
system.cpu00.commit.op_class_0::SimdFloatAdd            0      0.00%     70.93% # Class of committed instruction
system.cpu00.commit.op_class_0::SimdFloatAlu            0      0.00%     70.93% # Class of committed instruction
system.cpu00.commit.op_class_0::SimdFloatCmp            0      0.00%     70.93% # Class of committed instruction
system.cpu00.commit.op_class_0::SimdFloatCvt            0      0.00%     70.93% # Class of committed instruction
system.cpu00.commit.op_class_0::SimdFloatDiv            0      0.00%     70.93% # Class of committed instruction
system.cpu00.commit.op_class_0::SimdFloatMisc            0      0.00%     70.93% # Class of committed instruction
system.cpu00.commit.op_class_0::SimdFloatMult            0      0.00%     70.93% # Class of committed instruction
system.cpu00.commit.op_class_0::SimdFloatMultAcc            0      0.00%     70.93% # Class of committed instruction
system.cpu00.commit.op_class_0::SimdFloatSqrt            0      0.00%     70.93% # Class of committed instruction
system.cpu00.commit.op_class_0::MemRead        162027     16.73%     87.66% # Class of committed instruction
system.cpu00.commit.op_class_0::MemWrite       119528     12.34%    100.00% # Class of committed instruction
system.cpu00.commit.op_class_0::IprAccess            0      0.00%    100.00% # Class of committed instruction
system.cpu00.commit.op_class_0::InstPrefetch            0      0.00%    100.00% # Class of committed instruction
system.cpu00.commit.op_class_0::total          968614                       # Class of committed instruction
system.cpu00.commit.bw_lim_events               53087                       # number cycles where commit BW limit reached
system.cpu00.rob.rob_reads                    1798636                       # The number of ROB reads
system.cpu00.rob.rob_writes                   2161630                       # The number of ROB writes
system.cpu00.timesIdled                          1459                       # Number of times that the entire CPU went into an idle state and unscheduled itself
system.cpu00.idleCycles                        195700                       # Total number of cycles that the CPU has spent unscheduled due to idling
system.cpu00.quiesceCycles                      86536                       # Total number of cycles that CPU has spent quiesced or waiting for an interrupt
system.cpu00.committedInsts                    869969                       # Number of Instructions Simulated
system.cpu00.committedOps                      869969                       # Number of Ops (including micro ops) Simulated
system.cpu00.cpi                             1.143894                       # CPI: Cycles Per Instruction
system.cpu00.cpi_total                       1.143894                       # CPI: Total CPI of All Threads
system.cpu00.ipc                             0.874207                       # IPC: Instructions Per Cycle
system.cpu00.ipc_total                       0.874207                       # IPC: Total IPC of All Threads
system.cpu00.int_regfile_reads                1138661                       # number of integer regfile reads
system.cpu00.int_regfile_writes                612483                       # number of integer regfile writes
system.cpu00.fp_regfile_reads                  151797                       # number of floating regfile reads
system.cpu00.fp_regfile_writes                 102912                       # number of floating regfile writes
system.cpu00.misc_regfile_reads                  5096                       # number of misc regfile reads
system.cpu00.misc_regfile_writes                 2252                       # number of misc regfile writes
system.cpu00.dcache.tags.replacements           11260                       # number of replacements
system.cpu00.dcache.tags.tagsinuse         124.668885                       # Cycle average of tags in use
system.cpu00.dcache.tags.total_refs            229869                       # Total number of references to valid blocks.
system.cpu00.dcache.tags.sampled_refs           11388                       # Sample count of references to valid blocks.
system.cpu00.dcache.tags.avg_refs           20.185195                       # Average number of references to valid blocks.
system.cpu00.dcache.tags.warmup_cycle        87205788                       # Cycle when the warmup percentage was hit.
system.cpu00.dcache.tags.occ_blocks::cpu00.data   124.668885                       # Average occupied blocks per requestor
system.cpu00.dcache.tags.occ_percent::cpu00.data     0.973976                       # Average percentage of cache occupancy
system.cpu00.dcache.tags.occ_percent::total     0.973976                       # Average percentage of cache occupancy
system.cpu00.dcache.tags.occ_task_id_blocks::1024          128                       # Occupied blocks per task id
system.cpu00.dcache.tags.age_task_id_blocks_1024::0           57                       # Occupied blocks per task id
system.cpu00.dcache.tags.age_task_id_blocks_1024::1           62                       # Occupied blocks per task id
system.cpu00.dcache.tags.age_task_id_blocks_1024::2            9                       # Occupied blocks per task id
system.cpu00.dcache.tags.occ_task_id_percent::1024            1                       # Percentage of cache occupancy per task id
system.cpu00.dcache.tags.tag_accesses         1096620                       # Number of tag accesses
system.cpu00.dcache.tags.data_accesses        1096620                       # Number of data accesses
system.cpu00.dcache.ReadReq_hits::cpu00.data       142254                       # number of ReadReq hits
system.cpu00.dcache.ReadReq_hits::total        142254                       # number of ReadReq hits
system.cpu00.dcache.WriteReq_hits::cpu00.data        85394                       # number of WriteReq hits
system.cpu00.dcache.WriteReq_hits::total        85394                       # number of WriteReq hits
system.cpu00.dcache.LoadLockedReq_hits::cpu00.data          955                       # number of LoadLockedReq hits
system.cpu00.dcache.LoadLockedReq_hits::total          955                       # number of LoadLockedReq hits
system.cpu00.dcache.StoreCondReq_hits::cpu00.data         1101                       # number of StoreCondReq hits
system.cpu00.dcache.StoreCondReq_hits::total         1101                       # number of StoreCondReq hits
system.cpu00.dcache.demand_hits::cpu00.data       227648                       # number of demand (read+write) hits
system.cpu00.dcache.demand_hits::total         227648                       # number of demand (read+write) hits
system.cpu00.dcache.overall_hits::cpu00.data       227648                       # number of overall hits
system.cpu00.dcache.overall_hits::total        227648                       # number of overall hits
system.cpu00.dcache.ReadReq_misses::cpu00.data         8262                       # number of ReadReq misses
system.cpu00.dcache.ReadReq_misses::total         8262                       # number of ReadReq misses
system.cpu00.dcache.WriteReq_misses::cpu00.data        33010                       # number of WriteReq misses
system.cpu00.dcache.WriteReq_misses::total        33010                       # number of WriteReq misses
system.cpu00.dcache.LoadLockedReq_misses::cpu00.data          237                       # number of LoadLockedReq misses
system.cpu00.dcache.LoadLockedReq_misses::total          237                       # number of LoadLockedReq misses
system.cpu00.dcache.StoreCondReq_misses::cpu00.data           22                       # number of StoreCondReq misses
system.cpu00.dcache.StoreCondReq_misses::total           22                       # number of StoreCondReq misses
system.cpu00.dcache.demand_misses::cpu00.data        41272                       # number of demand (read+write) misses
system.cpu00.dcache.demand_misses::total        41272                       # number of demand (read+write) misses
system.cpu00.dcache.overall_misses::cpu00.data        41272                       # number of overall misses
system.cpu00.dcache.overall_misses::total        41272                       # number of overall misses
system.cpu00.dcache.ReadReq_miss_latency::cpu00.data    426345066                       # number of ReadReq miss cycles
system.cpu00.dcache.ReadReq_miss_latency::total    426345066                       # number of ReadReq miss cycles
system.cpu00.dcache.WriteReq_miss_latency::cpu00.data   5493900921                       # number of WriteReq miss cycles
system.cpu00.dcache.WriteReq_miss_latency::total   5493900921                       # number of WriteReq miss cycles
system.cpu00.dcache.LoadLockedReq_miss_latency::cpu00.data      2666574                       # number of LoadLockedReq miss cycles
system.cpu00.dcache.LoadLockedReq_miss_latency::total      2666574                       # number of LoadLockedReq miss cycles
system.cpu00.dcache.StoreCondReq_miss_latency::cpu00.data       344034                       # number of StoreCondReq miss cycles
system.cpu00.dcache.StoreCondReq_miss_latency::total       344034                       # number of StoreCondReq miss cycles
system.cpu00.dcache.demand_miss_latency::cpu00.data   5920245987                       # number of demand (read+write) miss cycles
system.cpu00.dcache.demand_miss_latency::total   5920245987                       # number of demand (read+write) miss cycles
system.cpu00.dcache.overall_miss_latency::cpu00.data   5920245987                       # number of overall miss cycles
system.cpu00.dcache.overall_miss_latency::total   5920245987                       # number of overall miss cycles
system.cpu00.dcache.ReadReq_accesses::cpu00.data       150516                       # number of ReadReq accesses(hits+misses)
system.cpu00.dcache.ReadReq_accesses::total       150516                       # number of ReadReq accesses(hits+misses)
system.cpu00.dcache.WriteReq_accesses::cpu00.data       118404                       # number of WriteReq accesses(hits+misses)
system.cpu00.dcache.WriteReq_accesses::total       118404                       # number of WriteReq accesses(hits+misses)
system.cpu00.dcache.LoadLockedReq_accesses::cpu00.data         1192                       # number of LoadLockedReq accesses(hits+misses)
system.cpu00.dcache.LoadLockedReq_accesses::total         1192                       # number of LoadLockedReq accesses(hits+misses)
system.cpu00.dcache.StoreCondReq_accesses::cpu00.data         1123                       # number of StoreCondReq accesses(hits+misses)
system.cpu00.dcache.StoreCondReq_accesses::total         1123                       # number of StoreCondReq accesses(hits+misses)
system.cpu00.dcache.demand_accesses::cpu00.data       268920                       # number of demand (read+write) accesses
system.cpu00.dcache.demand_accesses::total       268920                       # number of demand (read+write) accesses
system.cpu00.dcache.overall_accesses::cpu00.data       268920                       # number of overall (read+write) accesses
system.cpu00.dcache.overall_accesses::total       268920                       # number of overall (read+write) accesses
system.cpu00.dcache.ReadReq_miss_rate::cpu00.data     0.054891                       # miss rate for ReadReq accesses
system.cpu00.dcache.ReadReq_miss_rate::total     0.054891                       # miss rate for ReadReq accesses
system.cpu00.dcache.WriteReq_miss_rate::cpu00.data     0.278791                       # miss rate for WriteReq accesses
system.cpu00.dcache.WriteReq_miss_rate::total     0.278791                       # miss rate for WriteReq accesses
system.cpu00.dcache.LoadLockedReq_miss_rate::cpu00.data     0.198826                       # miss rate for LoadLockedReq accesses
system.cpu00.dcache.LoadLockedReq_miss_rate::total     0.198826                       # miss rate for LoadLockedReq accesses
system.cpu00.dcache.StoreCondReq_miss_rate::cpu00.data     0.019590                       # miss rate for StoreCondReq accesses
system.cpu00.dcache.StoreCondReq_miss_rate::total     0.019590                       # miss rate for StoreCondReq accesses
system.cpu00.dcache.demand_miss_rate::cpu00.data     0.153473                       # miss rate for demand accesses
system.cpu00.dcache.demand_miss_rate::total     0.153473                       # miss rate for demand accesses
system.cpu00.dcache.overall_miss_rate::cpu00.data     0.153473                       # miss rate for overall accesses
system.cpu00.dcache.overall_miss_rate::total     0.153473                       # miss rate for overall accesses
system.cpu00.dcache.ReadReq_avg_miss_latency::cpu00.data 51603.130719                       # average ReadReq miss latency
system.cpu00.dcache.ReadReq_avg_miss_latency::total 51603.130719                       # average ReadReq miss latency
system.cpu00.dcache.WriteReq_avg_miss_latency::cpu00.data 166431.412330                       # average WriteReq miss latency
system.cpu00.dcache.WriteReq_avg_miss_latency::total 166431.412330                       # average WriteReq miss latency
system.cpu00.dcache.LoadLockedReq_avg_miss_latency::cpu00.data 11251.367089                       # average LoadLockedReq miss latency
system.cpu00.dcache.LoadLockedReq_avg_miss_latency::total 11251.367089                       # average LoadLockedReq miss latency
system.cpu00.dcache.StoreCondReq_avg_miss_latency::cpu00.data 15637.909091                       # average StoreCondReq miss latency
system.cpu00.dcache.StoreCondReq_avg_miss_latency::total 15637.909091                       # average StoreCondReq miss latency
system.cpu00.dcache.demand_avg_miss_latency::cpu00.data 143444.611044                       # average overall miss latency
system.cpu00.dcache.demand_avg_miss_latency::total 143444.611044                       # average overall miss latency
system.cpu00.dcache.overall_avg_miss_latency::cpu00.data 143444.611044                       # average overall miss latency
system.cpu00.dcache.overall_avg_miss_latency::total 143444.611044                       # average overall miss latency
system.cpu00.dcache.blocked_cycles::no_mshrs       151081                       # number of cycles access was blocked
system.cpu00.dcache.blocked_cycles::no_targets            0                       # number of cycles access was blocked
system.cpu00.dcache.blocked::no_mshrs            2573                       # number of cycles access was blocked
system.cpu00.dcache.blocked::no_targets             0                       # number of cycles access was blocked
system.cpu00.dcache.avg_blocked_cycles::no_mshrs    58.717839                       # average number of cycles each access was blocked
system.cpu00.dcache.avg_blocked_cycles::no_targets          nan                       # average number of cycles each access was blocked
system.cpu00.dcache.fast_writes                     0                       # number of fast writes performed
system.cpu00.dcache.cache_copies                    0                       # number of cache copies performed
system.cpu00.dcache.writebacks::writebacks         8382                       # number of writebacks
system.cpu00.dcache.writebacks::total            8382                       # number of writebacks
system.cpu00.dcache.ReadReq_mshr_hits::cpu00.data         2880                       # number of ReadReq MSHR hits
system.cpu00.dcache.ReadReq_mshr_hits::total         2880                       # number of ReadReq MSHR hits
system.cpu00.dcache.WriteReq_mshr_hits::cpu00.data        26725                       # number of WriteReq MSHR hits
system.cpu00.dcache.WriteReq_mshr_hits::total        26725                       # number of WriteReq MSHR hits
system.cpu00.dcache.LoadLockedReq_mshr_hits::cpu00.data          129                       # number of LoadLockedReq MSHR hits
system.cpu00.dcache.LoadLockedReq_mshr_hits::total          129                       # number of LoadLockedReq MSHR hits
system.cpu00.dcache.demand_mshr_hits::cpu00.data        29605                       # number of demand (read+write) MSHR hits
system.cpu00.dcache.demand_mshr_hits::total        29605                       # number of demand (read+write) MSHR hits
system.cpu00.dcache.overall_mshr_hits::cpu00.data        29605                       # number of overall MSHR hits
system.cpu00.dcache.overall_mshr_hits::total        29605                       # number of overall MSHR hits
system.cpu00.dcache.ReadReq_mshr_misses::cpu00.data         5382                       # number of ReadReq MSHR misses
system.cpu00.dcache.ReadReq_mshr_misses::total         5382                       # number of ReadReq MSHR misses
system.cpu00.dcache.WriteReq_mshr_misses::cpu00.data         6285                       # number of WriteReq MSHR misses
system.cpu00.dcache.WriteReq_mshr_misses::total         6285                       # number of WriteReq MSHR misses
system.cpu00.dcache.LoadLockedReq_mshr_misses::cpu00.data          108                       # number of LoadLockedReq MSHR misses
system.cpu00.dcache.LoadLockedReq_mshr_misses::total          108                       # number of LoadLockedReq MSHR misses
system.cpu00.dcache.StoreCondReq_mshr_misses::cpu00.data           22                       # number of StoreCondReq MSHR misses
system.cpu00.dcache.StoreCondReq_mshr_misses::total           22                       # number of StoreCondReq MSHR misses
system.cpu00.dcache.demand_mshr_misses::cpu00.data        11667                       # number of demand (read+write) MSHR misses
system.cpu00.dcache.demand_mshr_misses::total        11667                       # number of demand (read+write) MSHR misses
system.cpu00.dcache.overall_mshr_misses::cpu00.data        11667                       # number of overall MSHR misses
system.cpu00.dcache.overall_mshr_misses::total        11667                       # number of overall MSHR misses
system.cpu00.dcache.ReadReq_mshr_miss_latency::cpu00.data    245852658                       # number of ReadReq MSHR miss cycles
system.cpu00.dcache.ReadReq_mshr_miss_latency::total    245852658                       # number of ReadReq MSHR miss cycles
system.cpu00.dcache.WriteReq_mshr_miss_latency::cpu00.data   1163930227                       # number of WriteReq MSHR miss cycles
system.cpu00.dcache.WriteReq_mshr_miss_latency::total   1163930227                       # number of WriteReq MSHR miss cycles
system.cpu00.dcache.LoadLockedReq_mshr_miss_latency::cpu00.data       976212                       # number of LoadLockedReq MSHR miss cycles
system.cpu00.dcache.LoadLockedReq_mshr_miss_latency::total       976212                       # number of LoadLockedReq MSHR miss cycles
system.cpu00.dcache.StoreCondReq_mshr_miss_latency::cpu00.data       316710                       # number of StoreCondReq MSHR miss cycles
system.cpu00.dcache.StoreCondReq_mshr_miss_latency::total       316710                       # number of StoreCondReq MSHR miss cycles
system.cpu00.dcache.demand_mshr_miss_latency::cpu00.data   1409782885                       # number of demand (read+write) MSHR miss cycles
system.cpu00.dcache.demand_mshr_miss_latency::total   1409782885                       # number of demand (read+write) MSHR miss cycles
system.cpu00.dcache.overall_mshr_miss_latency::cpu00.data   1409782885                       # number of overall MSHR miss cycles
system.cpu00.dcache.overall_mshr_miss_latency::total   1409782885                       # number of overall MSHR miss cycles
system.cpu00.dcache.ReadReq_mshr_miss_rate::cpu00.data     0.035757                       # mshr miss rate for ReadReq accesses
system.cpu00.dcache.ReadReq_mshr_miss_rate::total     0.035757                       # mshr miss rate for ReadReq accesses
system.cpu00.dcache.WriteReq_mshr_miss_rate::cpu00.data     0.053081                       # mshr miss rate for WriteReq accesses
system.cpu00.dcache.WriteReq_mshr_miss_rate::total     0.053081                       # mshr miss rate for WriteReq accesses
system.cpu00.dcache.LoadLockedReq_mshr_miss_rate::cpu00.data     0.090604                       # mshr miss rate for LoadLockedReq accesses
system.cpu00.dcache.LoadLockedReq_mshr_miss_rate::total     0.090604                       # mshr miss rate for LoadLockedReq accesses
system.cpu00.dcache.StoreCondReq_mshr_miss_rate::cpu00.data     0.019590                       # mshr miss rate for StoreCondReq accesses
system.cpu00.dcache.StoreCondReq_mshr_miss_rate::total     0.019590                       # mshr miss rate for StoreCondReq accesses
system.cpu00.dcache.demand_mshr_miss_rate::cpu00.data     0.043385                       # mshr miss rate for demand accesses
system.cpu00.dcache.demand_mshr_miss_rate::total     0.043385                       # mshr miss rate for demand accesses
system.cpu00.dcache.overall_mshr_miss_rate::cpu00.data     0.043385                       # mshr miss rate for overall accesses
system.cpu00.dcache.overall_mshr_miss_rate::total     0.043385                       # mshr miss rate for overall accesses
system.cpu00.dcache.ReadReq_avg_mshr_miss_latency::cpu00.data 45680.538462                       # average ReadReq mshr miss latency
system.cpu00.dcache.ReadReq_avg_mshr_miss_latency::total 45680.538462                       # average ReadReq mshr miss latency
system.cpu00.dcache.WriteReq_avg_mshr_miss_latency::cpu00.data 185191.762450                       # average WriteReq mshr miss latency
system.cpu00.dcache.WriteReq_avg_mshr_miss_latency::total 185191.762450                       # average WriteReq mshr miss latency
[...]
system.tol2bus.pkt_count_system.cpu06.dcache.mem_side::system.l2.cpu_side         3655                       # Packet count per connected master and slave (bytes)
system.tol2bus.pkt_count_system.cpu07.icache.mem_side::system.l2.cpu_side         2572                       # Packet count per connected master and slave (bytes)
system.tol2bus.pkt_count_system.cpu07.dcache.mem_side::system.l2.cpu_side         2311                       # Packet count per connected master and slave (bytes)
system.tol2bus.pkt_count_system.cpu08.icache.mem_side::system.l2.cpu_side         1450                       # Packet count per connected master and slave (bytes)
system.tol2bus.pkt_count_system.cpu08.dcache.mem_side::system.l2.cpu_side         1684                       # Packet count per connected master and slave (bytes)
system.tol2bus.pkt_count_system.cpu09.icache.mem_side::system.l2.cpu_side         2993                       # Packet count per connected master and slave (bytes)
system.tol2bus.pkt_count_system.cpu09.dcache.mem_side::system.l2.cpu_side         3144                       # Packet count per connected master and slave (bytes)
system.tol2bus.pkt_count_system.cpu10.icache.mem_side::system.l2.cpu_side         1650                       # Packet count per connected master and slave (bytes)
system.tol2bus.pkt_count_system.cpu10.dcache.mem_side::system.l2.cpu_side         2012                       # Packet count per connected master and slave (bytes)
system.tol2bus.pkt_count_system.cpu11.icache.mem_side::system.l2.cpu_side         2799                       # Packet count per connected master and slave (bytes)
system.tol2bus.pkt_count_system.cpu11.dcache.mem_side::system.l2.cpu_side         2786                       # Packet count per connected master and slave (bytes)
system.tol2bus.pkt_count_system.cpu12.icache.mem_side::system.l2.cpu_side         1233                       # Packet count per connected master and slave (bytes)
system.tol2bus.pkt_count_system.cpu12.dcache.mem_side::system.l2.cpu_side         1146                       # Packet count per connected master and slave (bytes)
system.tol2bus.pkt_count_system.cpu13.icache.mem_side::system.l2.cpu_side         3428                       # Packet count per connected master and slave (bytes)
system.tol2bus.pkt_count_system.cpu13.dcache.mem_side::system.l2.cpu_side         3406                       # Packet count per connected master and slave (bytes)
system.tol2bus.pkt_count_system.cpu14.icache.mem_side::system.l2.cpu_side         2723                       # Packet count per connected master and slave (bytes)
system.tol2bus.pkt_count_system.cpu14.dcache.mem_side::system.l2.cpu_side         2461                       # Packet count per connected master and slave (bytes)
system.tol2bus.pkt_count_system.cpu15.icache.mem_side::system.l2.cpu_side         1130                       # Packet count per connected master and slave (bytes)
system.tol2bus.pkt_count_system.cpu15.dcache.mem_side::system.l2.cpu_side         1067                       # Packet count per connected master and slave (bytes)
system.tol2bus.pkt_count::total                124085                       # Packet count per connected master and slave (bytes)
system.tol2bus.pkt_size_system.cpu00.icache.mem_side::system.l2.cpu_side       966912                       # Cumulative packet size per connected master and slave (bytes)
system.tol2bus.pkt_size_system.cpu00.dcache.mem_side::system.l2.cpu_side      1267648                       # Cumulative packet size per connected master and slave (bytes)
system.tol2bus.pkt_size_system.cpu01.icache.mem_side::system.l2.cpu_side       111168                       # Cumulative packet size per connected master and slave (bytes)
system.tol2bus.pkt_size_system.cpu01.dcache.mem_side::system.l2.cpu_side        49344                       # Cumulative packet size per connected master and slave (bytes)
system.tol2bus.pkt_size_system.cpu02.icache.mem_side::system.l2.cpu_side        36096                       # Cumulative packet size per connected master and slave (bytes)
system.tol2bus.pkt_size_system.cpu02.dcache.mem_side::system.l2.cpu_side        32064                       # Cumulative packet size per connected master and slave (bytes)
system.tol2bus.pkt_size_system.cpu03.icache.mem_side::system.l2.cpu_side       130752                       # Cumulative packet size per connected master and slave (bytes)
system.tol2bus.pkt_size_system.cpu03.dcache.mem_side::system.l2.cpu_side        53888                       # Cumulative packet size per connected master and slave (bytes)
system.tol2bus.pkt_size_system.cpu04.icache.mem_side::system.l2.cpu_side        31232                       # Cumulative packet size per connected master and slave (bytes)
system.tol2bus.pkt_size_system.cpu04.dcache.mem_side::system.l2.cpu_side        29760                       # Cumulative packet size per connected master and slave (bytes)
system.tol2bus.pkt_size_system.cpu05.icache.mem_side::system.l2.cpu_side        38912                       # Cumulative packet size per connected master and slave (bytes)
system.tol2bus.pkt_size_system.cpu05.dcache.mem_side::system.l2.cpu_side        29504                       # Cumulative packet size per connected master and slave (bytes)
system.tol2bus.pkt_size_system.cpu06.icache.mem_side::system.l2.cpu_side       127616                       # Cumulative packet size per connected master and slave (bytes)
system.tol2bus.pkt_size_system.cpu06.dcache.mem_side::system.l2.cpu_side        50432                       # Cumulative packet size per connected master and slave (bytes)
system.tol2bus.pkt_size_system.cpu07.icache.mem_side::system.l2.cpu_side        99584                       # Cumulative packet size per connected master and slave (bytes)
system.tol2bus.pkt_size_system.cpu07.dcache.mem_side::system.l2.cpu_side        46208                       # Cumulative packet size per connected master and slave (bytes)
system.tol2bus.pkt_size_system.cpu08.icache.mem_side::system.l2.cpu_side        52544                       # Cumulative packet size per connected master and slave (bytes)
system.tol2bus.pkt_size_system.cpu08.dcache.mem_side::system.l2.cpu_side        30784                       # Cumulative packet size per connected master and slave (bytes)
system.tol2bus.pkt_size_system.cpu09.icache.mem_side::system.l2.cpu_side       117248                       # Cumulative packet size per connected master and slave (bytes)
system.tol2bus.pkt_size_system.cpu09.dcache.mem_side::system.l2.cpu_side        48128                       # Cumulative packet size per connected master and slave (bytes)
system.tol2bus.pkt_size_system.cpu10.icache.mem_side::system.l2.cpu_side        60608                       # Cumulative packet size per connected master and slave (bytes)
system.tol2bus.pkt_size_system.cpu10.dcache.mem_side::system.l2.cpu_side        34880                       # Cumulative packet size per connected master and slave (bytes)
system.tol2bus.pkt_size_system.cpu11.icache.mem_side::system.l2.cpu_side       109120                       # Cumulative packet size per connected master and slave (bytes)
system.tol2bus.pkt_size_system.cpu11.dcache.mem_side::system.l2.cpu_side        46272                       # Cumulative packet size per connected master and slave (bytes)
system.tol2bus.pkt_size_system.cpu12.icache.mem_side::system.l2.cpu_side        43392                       # Cumulative packet size per connected master and slave (bytes)
system.tol2bus.pkt_size_system.cpu12.dcache.mem_side::system.l2.cpu_side        33728                       # Cumulative packet size per connected master and slave (bytes)
system.tol2bus.pkt_size_system.cpu13.icache.mem_side::system.l2.cpu_side       135808                       # Cumulative packet size per connected master and slave (bytes)
system.tol2bus.pkt_size_system.cpu13.dcache.mem_side::system.l2.cpu_side        49216                       # Cumulative packet size per connected master and slave (bytes)
system.tol2bus.pkt_size_system.cpu14.icache.mem_side::system.l2.cpu_side       105984                       # Cumulative packet size per connected master and slave (bytes)
system.tol2bus.pkt_size_system.cpu14.dcache.mem_side::system.l2.cpu_side        41536                       # Cumulative packet size per connected master and slave (bytes)
system.tol2bus.pkt_size_system.cpu15.icache.mem_side::system.l2.cpu_side        39552                       # Cumulative packet size per connected master and slave (bytes)
system.tol2bus.pkt_size_system.cpu15.dcache.mem_side::system.l2.cpu_side        27776                       # Cumulative packet size per connected master and slave (bytes)
system.tol2bus.pkt_size::total                4077696                       # Cumulative packet size per connected master and slave (bytes)
system.tol2bus.snoops                           11611                       # Total snoops (count)
system.tol2bus.snoop_fanout::samples            52008                       # Request fanout histogram
system.tol2bus.snoop_fanout::mean            2.368886                       # Request fanout histogram
system.tol2bus.snoop_fanout::stdev           3.787889                       # Request fanout histogram
system.tol2bus.snoop_fanout::underflows             0      0.00%      0.00% # Request fanout histogram
system.tol2bus.snoop_fanout::0                  24759     47.61%     47.61% # Request fanout histogram
system.tol2bus.snoop_fanout::1                  10242     19.69%     67.30% # Request fanout histogram
system.tol2bus.snoop_fanout::2                   3567      6.86%     74.16% # Request fanout histogram
system.tol2bus.snoop_fanout::3                   1874      3.60%     77.76% # Request fanout histogram
system.tol2bus.snoop_fanout::4                   1341      2.58%     80.34% # Request fanout histogram
system.tol2bus.snoop_fanout::5                   1216      2.34%     82.68% # Request fanout histogram
system.tol2bus.snoop_fanout::6                   1217      2.34%     85.02% # Request fanout histogram
system.tol2bus.snoop_fanout::7                   1193      2.29%     87.31% # Request fanout histogram
system.tol2bus.snoop_fanout::8                   1043      2.01%     89.32% # Request fanout histogram
system.tol2bus.snoop_fanout::9                    951      1.83%     91.15% # Request fanout histogram
system.tol2bus.snoop_fanout::10                   980      1.88%     93.03% # Request fanout histogram
system.tol2bus.snoop_fanout::11                   845      1.62%     94.65% # Request fanout histogram
system.tol2bus.snoop_fanout::12                   779      1.50%     96.15% # Request fanout histogram
system.tol2bus.snoop_fanout::13                   749      1.44%     97.59% # Request fanout histogram
system.tol2bus.snoop_fanout::14                   766      1.47%     99.07% # Request fanout histogram
system.tol2bus.snoop_fanout::15                   477      0.92%     99.98% # Request fanout histogram
system.tol2bus.snoop_fanout::16                     9      0.02%    100.00% # Request fanout histogram
system.tol2bus.snoop_fanout::17                     0      0.00%    100.00% # Request fanout histogram
system.tol2bus.snoop_fanout::18                     0      0.00%    100.00% # Request fanout histogram
system.tol2bus.snoop_fanout::19                     0      0.00%    100.00% # Request fanout histogram
system.tol2bus.snoop_fanout::20                     0      0.00%    100.00% # Request fanout histogram
system.tol2bus.snoop_fanout::21                     0      0.00%    100.00% # Request fanout histogram
system.tol2bus.snoop_fanout::22                     0      0.00%    100.00% # Request fanout histogram
system.tol2bus.snoop_fanout::23                     0      0.00%    100.00% # Request fanout histogram
system.tol2bus.snoop_fanout::24                     0      0.00%    100.00% # Request fanout histogram
system.tol2bus.snoop_fanout::25                     0      0.00%    100.00% # Request fanout histogram
system.tol2bus.snoop_fanout::26                     0      0.00%    100.00% # Request fanout histogram
system.tol2bus.snoop_fanout::27                     0      0.00%    100.00% # Request fanout histogram
system.tol2bus.snoop_fanout::28                     0      0.00%    100.00% # Request fanout histogram
system.tol2bus.snoop_fanout::29                     0      0.00%    100.00% # Request fanout histogram
system.tol2bus.snoop_fanout::30                     0      0.00%    100.00% # Request fanout histogram
system.tol2bus.snoop_fanout::31                     0      0.00%    100.00% # Request fanout histogram
system.tol2bus.snoop_fanout::32                     0      0.00%    100.00% # Request fanout histogram
system.tol2bus.snoop_fanout::overflows              0      0.00%    100.00% # Request fanout histogram
system.tol2bus.snoop_fanout::min_value              0                       # Request fanout histogram
system.tol2bus.snoop_fanout::max_value             16                       # Request fanout histogram
system.tol2bus.snoop_fanout::total              52008                       # Request fanout histogram
system.tol2bus.reqLayer0.occupancy          166468487                       # Layer occupancy (ticks)
system.tol2bus.reqLayer0.utilization             12.4                       # Layer utilization (%)
system.tol2bus.respLayer0.occupancy          29471281                       # Layer occupancy (ticks)
system.tol2bus.respLayer0.utilization             2.2                       # Layer utilization (%)
system.tol2bus.respLayer1.occupancy          43963024                       # Layer occupancy (ticks)
system.tol2bus.respLayer1.utilization             3.3                       # Layer utilization (%)
system.tol2bus.respLayer2.occupancy           4242349                       # Layer occupancy (ticks)
system.tol2bus.respLayer2.utilization             0.3                       # Layer utilization (%)
system.tol2bus.respLayer3.occupancy           5919284                       # Layer occupancy (ticks)
system.tol2bus.respLayer3.utilization             0.4                       # Layer utilization (%)
system.tol2bus.respLayer4.occupancy           1857225                       # Layer occupancy (ticks)
system.tol2bus.respLayer4.utilization             0.1                       # Layer utilization (%)
system.tol2bus.respLayer5.occupancy           1762047                       # Layer occupancy (ticks)
system.tol2bus.respLayer5.utilization             0.1                       # Layer utilization (%)
system.tol2bus.respLayer6.occupancy           4755418                       # Layer occupancy (ticks)
system.tol2bus.respLayer6.utilization             0.4                       # Layer utilization (%)
system.tol2bus.respLayer7.occupancy           6799761                       # Layer occupancy (ticks)
system.tol2bus.respLayer7.utilization             0.5                       # Layer utilization (%)
system.tol2bus.respLayer8.occupancy           1667829                       # Layer occupancy (ticks)
system.tol2bus.respLayer8.utilization             0.1                       # Layer utilization (%)
system.tol2bus.respLayer9.occupancy           1718572                       # Layer occupancy (ticks)
system.tol2bus.respLayer9.utilization             0.1                       # Layer utilization (%)
system.tol2bus.respLayer10.occupancy          1946702                       # Layer occupancy (ticks)
system.tol2bus.respLayer10.utilization            0.1                       # Layer utilization (%)
system.tol2bus.respLayer11.occupancy          1871667                       # Layer occupancy (ticks)
system.tol2bus.respLayer11.utilization            0.1                       # Layer utilization (%)
system.tol2bus.respLayer12.occupancy          4699045                       # Layer occupancy (ticks)
system.tol2bus.respLayer12.utilization            0.3                       # Layer utilization (%)
system.tol2bus.respLayer13.occupancy          6517935                       # Layer occupancy (ticks)
system.tol2bus.respLayer13.utilization            0.5                       # Layer utilization (%)
system.tol2bus.respLayer14.occupancy          3839515                       # Layer occupancy (ticks)
system.tol2bus.respLayer14.utilization            0.3                       # Layer utilization (%)
system.tol2bus.respLayer15.occupancy          4114091                       # Layer occupancy (ticks)
system.tol2bus.respLayer15.utilization            0.3                       # Layer utilization (%)
system.tol2bus.respLayer16.occupancy          2414099                       # Layer occupancy (ticks)
system.tol2bus.respLayer16.utilization            0.2                       # Layer utilization (%)
system.tol2bus.respLayer17.occupancy          2379644                       # Layer occupancy (ticks)
system.tol2bus.respLayer17.utilization            0.2                       # Layer utilization (%)
system.tol2bus.respLayer18.occupancy          4418721                       # Layer occupancy (ticks)
system.tol2bus.respLayer18.utilization            0.3                       # Layer utilization (%)
system.tol2bus.respLayer19.occupancy          5518148                       # Layer occupancy (ticks)
system.tol2bus.respLayer19.utilization            0.4                       # Layer utilization (%)
system.tol2bus.respLayer20.occupancy          2703526                       # Layer occupancy (ticks)
system.tol2bus.respLayer20.utilization            0.2                       # Layer utilization (%)
system.tol2bus.respLayer21.occupancy          3509786                       # Layer occupancy (ticks)
system.tol2bus.respLayer21.utilization            0.3                       # Layer utilization (%)
system.tol2bus.respLayer22.occupancy          4148048                       # Layer occupancy (ticks)
system.tol2bus.respLayer22.utilization            0.3                       # Layer utilization (%)
system.tol2bus.respLayer23.occupancy          4871048                       # Layer occupancy (ticks)
system.tol2bus.respLayer23.utilization            0.4                       # Layer utilization (%)
system.tol2bus.respLayer24.occupancy          2136341                       # Layer occupancy (ticks)
system.tol2bus.respLayer24.utilization            0.2                       # Layer utilization (%)
system.tol2bus.respLayer25.occupancy          1773286                       # Layer occupancy (ticks)
system.tol2bus.respLayer25.utilization            0.1                       # Layer utilization (%)
system.tol2bus.respLayer26.occupancy          4983008                       # Layer occupancy (ticks)
system.tol2bus.respLayer26.utilization            0.4                       # Layer utilization (%)
system.tol2bus.respLayer27.occupancy          6134535                       # Layer occupancy (ticks)
system.tol2bus.respLayer27.utilization            0.5                       # Layer utilization (%)
system.tol2bus.respLayer28.occupancy          4091890                       # Layer occupancy (ticks)
system.tol2bus.respLayer28.utilization            0.3                       # Layer utilization (%)
system.tol2bus.respLayer29.occupancy          4327056                       # Layer occupancy (ticks)
system.tol2bus.respLayer29.utilization            0.3                       # Layer utilization (%)
system.tol2bus.respLayer30.occupancy          1946549                       # Layer occupancy (ticks)
system.tol2bus.respLayer30.utilization            0.1                       # Layer utilization (%)
system.tol2bus.respLayer31.occupancy          1738772                       # Layer occupancy (ticks)
system.tol2bus.respLayer31.utilization            0.1                       # Layer utilization (%)

---------- End Simulation Statistics   ----------
