
---------- Begin Simulation Statistics ----------
sim_seconds                                  0.010054                       # Number of seconds simulated
sim_ticks                                 10054105587                       # Number of ticks simulated
final_tick                                10054105587                       # Number of ticks from beginning of simulation (restored from checkpoints and never reset)
sim_freq                                 1000000000000                       # Frequency of simulated ticks
host_inst_rate                                  90259                       # Simulator instruction rate (inst/s)
host_op_rate                                    90259                       # Simulator op (including micro ops) rate (op/s)
host_tick_rate                               14175502                       # Simulator tick rate (ticks/s)
host_mem_usage                                 695492                       # Number of bytes of host memory used
host_seconds                                   709.26                       # Real time elapsed on the host
sim_insts                                    64017147                       # Number of instructions simulated
sim_ops                                      64017147                       # Number of ops (including micro ops) simulated
system.voltage_domain.voltage                       1                       # Voltage in Volts
system.clk_domain.clock                          1000                       # Clock period in ticks
system.mem_ctrls.bytes_read::cpu00.inst        128832                       # Number of bytes read from this memory
system.mem_ctrls.bytes_read::cpu00.data        616832                       # Number of bytes read from this memory
system.mem_ctrls.bytes_read::cpu01.inst         11968                       # Number of bytes read from this memory
system.mem_ctrls.bytes_read::cpu01.data        308864                       # Number of bytes read from this memory
system.mem_ctrls.bytes_read::cpu02.inst           832                       # Number of bytes read from this memory
system.mem_ctrls.bytes_read::cpu02.data        272064                       # Number of bytes read from this memory
system.mem_ctrls.bytes_read::cpu03.inst           256                       # Number of bytes read from this memory
system.mem_ctrls.bytes_read::cpu03.data        286912                       # Number of bytes read from this memory
system.mem_ctrls.bytes_read::cpu04.inst           192                       # Number of bytes read from this memory
system.mem_ctrls.bytes_read::cpu04.data        296000                       # Number of bytes read from this memory
system.mem_ctrls.bytes_read::cpu05.inst           256                       # Number of bytes read from this memory
system.mem_ctrls.bytes_read::cpu05.data        342208                       # Number of bytes read from this memory
system.mem_ctrls.bytes_read::cpu06.inst           320                       # Number of bytes read from this memory
system.mem_ctrls.bytes_read::cpu06.data        282560                       # Number of bytes read from this memory
system.mem_ctrls.bytes_read::cpu07.inst           320                       # Number of bytes read from this memory
system.mem_ctrls.bytes_read::cpu07.data        309184                       # Number of bytes read from this memory
system.mem_ctrls.bytes_read::cpu08.inst           320                       # Number of bytes read from this memory
system.mem_ctrls.bytes_read::cpu08.data        347456                       # Number of bytes read from this memory
system.mem_ctrls.bytes_read::cpu09.inst            64                       # Number of bytes read from this memory
system.mem_ctrls.bytes_read::cpu09.data        325312                       # Number of bytes read from this memory
system.mem_ctrls.bytes_read::cpu10.inst           128                       # Number of bytes read from this memory
system.mem_ctrls.bytes_read::cpu10.data        292544                       # Number of bytes read from this memory
system.mem_ctrls.bytes_read::cpu11.data        278592                       # Number of bytes read from this memory
system.mem_ctrls.bytes_read::cpu12.inst          1280                       # Number of bytes read from this memory
system.mem_ctrls.bytes_read::cpu12.data        335168                       # Number of bytes read from this memory
system.mem_ctrls.bytes_read::cpu13.inst            64                       # Number of bytes read from this memory
system.mem_ctrls.bytes_read::cpu13.data        343360                       # Number of bytes read from this memory
system.mem_ctrls.bytes_read::cpu14.inst            64                       # Number of bytes read from this memory
system.mem_ctrls.bytes_read::cpu14.data        325440                       # Number of bytes read from this memory
system.mem_ctrls.bytes_read::cpu15.inst           512                       # Number of bytes read from this memory
system.mem_ctrls.bytes_read::cpu15.data        309184                       # Number of bytes read from this memory
system.mem_ctrls.bytes_read::total            5417088                       # Number of bytes read from this memory
system.mem_ctrls.bytes_inst_read::cpu00.inst       128832                       # Number of instructions bytes read from this memory
system.mem_ctrls.bytes_inst_read::cpu01.inst        11968                       # Number of instructions bytes read from this memory
system.mem_ctrls.bytes_inst_read::cpu02.inst          832                       # Number of instructions bytes read from this memory
system.mem_ctrls.bytes_inst_read::cpu03.inst          256                       # Number of instructions bytes read from this memory
system.mem_ctrls.bytes_inst_read::cpu04.inst          192                       # Number of instructions bytes read from this memory
system.mem_ctrls.bytes_inst_read::cpu05.inst          256                       # Number of instructions bytes read from this memory
system.mem_ctrls.bytes_inst_read::cpu06.inst          320                       # Number of instructions bytes read from this memory
system.mem_ctrls.bytes_inst_read::cpu07.inst          320                       # Number of instructions bytes read from this memory
system.mem_ctrls.bytes_inst_read::cpu08.inst          320                       # Number of instructions bytes read from this memory
system.mem_ctrls.bytes_inst_read::cpu09.inst           64                       # Number of instructions bytes read from this memory
system.mem_ctrls.bytes_inst_read::cpu10.inst          128                       # Number of instructions bytes read from this memory
system.mem_ctrls.bytes_inst_read::cpu12.inst         1280                       # Number of instructions bytes read from this memory
system.mem_ctrls.bytes_inst_read::cpu13.inst           64                       # Number of instructions bytes read from this memory
system.mem_ctrls.bytes_inst_read::cpu14.inst           64                       # Number of instructions bytes read from this memory
system.mem_ctrls.bytes_inst_read::cpu15.inst          512                       # Number of instructions bytes read from this memory
system.mem_ctrls.bytes_inst_read::total        145408                       # Number of instructions bytes read from this memory
system.mem_ctrls.bytes_written::writebacks      2689920                       # Number of bytes written to this memory
system.mem_ctrls.bytes_written::total         2689920                       # Number of bytes written to this memory
system.mem_ctrls.num_reads::cpu00.inst           2013                       # Number of read requests responded to by this memory
system.mem_ctrls.num_reads::cpu00.data           9638                       # Number of read requests responded to by this memory
system.mem_ctrls.num_reads::cpu01.inst            187                       # Number of read requests responded to by this memory
system.mem_ctrls.num_reads::cpu01.data           4826                       # Number of read requests responded to by this memory
system.mem_ctrls.num_reads::cpu02.inst             13                       # Number of read requests responded to by this memory
system.mem_ctrls.num_reads::cpu02.data           4251                       # Number of read requests responded to by this memory
system.mem_ctrls.num_reads::cpu03.inst              4                       # Number of read requests responded to by this memory
system.mem_ctrls.num_reads::cpu03.data           4483                       # Number of read requests responded to by this memory
system.mem_ctrls.num_reads::cpu04.inst              3                       # Number of read requests responded to by this memory
system.mem_ctrls.num_reads::cpu04.data           4625                       # Number of read requests responded to by this memory
system.mem_ctrls.num_reads::cpu05.inst              4                       # Number of read requests responded to by this memory
system.mem_ctrls.num_reads::cpu05.data           5347                       # Number of read requests responded to by this memory
system.mem_ctrls.num_reads::cpu06.inst              5                       # Number of read requests responded to by this memory
system.mem_ctrls.num_reads::cpu06.data           4415                       # Number of read requests responded to by this memory
system.mem_ctrls.num_reads::cpu07.inst              5                       # Number of read requests responded to by this memory
system.mem_ctrls.num_reads::cpu07.data           4831                       # Number of read requests responded to by this memory
system.mem_ctrls.num_reads::cpu08.inst              5                       # Number of read requests responded to by this memory
system.mem_ctrls.num_reads::cpu08.data           5429                       # Number of read requests responded to by this memory
system.mem_ctrls.num_reads::cpu09.inst              1                       # Number of read requests responded to by this memory
system.mem_ctrls.num_reads::cpu09.data           5083                       # Number of read requests responded to by this memory
system.mem_ctrls.num_reads::cpu10.inst              2                       # Number of read requests responded to by this memory
system.mem_ctrls.num_reads::cpu10.data           4571                       # Number of read requests responded to by this memory
system.mem_ctrls.num_reads::cpu11.data           4353                       # Number of read requests responded to by this memory
system.mem_ctrls.num_reads::cpu12.inst             20                       # Number of read requests responded to by this memory
system.mem_ctrls.num_reads::cpu12.data           5237                       # Number of read requests responded to by this memory
system.mem_ctrls.num_reads::cpu13.inst              1                       # Number of read requests responded to by this memory
system.mem_ctrls.num_reads::cpu13.data           5365                       # Number of read requests responded to by this memory
system.mem_ctrls.num_reads::cpu14.inst              1                       # Number of read requests responded to by this memory
system.mem_ctrls.num_reads::cpu14.data           5085                       # Number of read requests responded to by this memory
system.mem_ctrls.num_reads::cpu15.inst              8                       # Number of read requests responded to by this memory
system.mem_ctrls.num_reads::cpu15.data           4831                       # Number of read requests responded to by this memory
system.mem_ctrls.num_reads::total               84642                       # Number of read requests responded to by this memory
system.mem_ctrls.num_writes::writebacks         42030                       # Number of write requests responded to by this memory
system.mem_ctrls.num_writes::total              42030                       # Number of write requests responded to by this memory
system.mem_ctrls.bw_read::cpu00.inst         12813870                       # Total read bandwidth from this memory (bytes/s)
system.mem_ctrls.bw_read::cpu00.data         61351255                       # Total read bandwidth from this memory (bytes/s)
system.mem_ctrls.bw_read::cpu01.inst          1190359                       # Total read bandwidth from this memory (bytes/s)
system.mem_ctrls.bw_read::cpu01.data         30720187                       # Total read bandwidth from this memory (bytes/s)
system.mem_ctrls.bw_read::cpu02.inst            82752                       # Total read bandwidth from this memory (bytes/s)
system.mem_ctrls.bw_read::cpu02.data         27059990                       # Total read bandwidth from this memory (bytes/s)
system.mem_ctrls.bw_read::cpu03.inst            25462                       # Total read bandwidth from this memory (bytes/s)
system.mem_ctrls.bw_read::cpu03.data         28536800                       # Total read bandwidth from this memory (bytes/s)
system.mem_ctrls.bw_read::cpu04.inst            19097                       # Total read bandwidth from this memory (bytes/s)
system.mem_ctrls.bw_read::cpu04.data         29440709                       # Total read bandwidth from this memory (bytes/s)
system.mem_ctrls.bw_read::cpu05.inst            25462                       # Total read bandwidth from this memory (bytes/s)
system.mem_ctrls.bw_read::cpu05.data         34036643                       # Total read bandwidth from this memory (bytes/s)
system.mem_ctrls.bw_read::cpu06.inst            31828                       # Total read bandwidth from this memory (bytes/s)
system.mem_ctrls.bw_read::cpu06.data         28103942                       # Total read bandwidth from this memory (bytes/s)
system.mem_ctrls.bw_read::cpu07.inst            31828                       # Total read bandwidth from this memory (bytes/s)
system.mem_ctrls.bw_read::cpu07.data         30752014                       # Total read bandwidth from this memory (bytes/s)
system.mem_ctrls.bw_read::cpu08.inst            31828                       # Total read bandwidth from this memory (bytes/s)
system.mem_ctrls.bw_read::cpu08.data         34558619                       # Total read bandwidth from this memory (bytes/s)
system.mem_ctrls.bw_read::cpu09.inst             6366                       # Total read bandwidth from this memory (bytes/s)
system.mem_ctrls.bw_read::cpu09.data         32356135                       # Total read bandwidth from this memory (bytes/s)
system.mem_ctrls.bw_read::cpu10.inst            12731                       # Total read bandwidth from this memory (bytes/s)
system.mem_ctrls.bw_read::cpu10.data         29096969                       # Total read bandwidth from this memory (bytes/s)
system.mem_ctrls.bw_read::cpu11.data         27709277                       # Total read bandwidth from this memory (bytes/s)
system.mem_ctrls.bw_read::cpu12.inst           127311                       # Total read bandwidth from this memory (bytes/s)
system.mem_ctrls.bw_read::cpu12.data         33336431                       # Total read bandwidth from this memory (bytes/s)
system.mem_ctrls.bw_read::cpu13.inst             6366                       # Total read bandwidth from this memory (bytes/s)
system.mem_ctrls.bw_read::cpu13.data         34151223                       # Total read bandwidth from this memory (bytes/s)
system.mem_ctrls.bw_read::cpu14.inst             6366                       # Total read bandwidth from this memory (bytes/s)
system.mem_ctrls.bw_read::cpu14.data         32368866                       # Total read bandwidth from this memory (bytes/s)
system.mem_ctrls.bw_read::cpu15.inst            50924                       # Total read bandwidth from this memory (bytes/s)
system.mem_ctrls.bw_read::cpu15.data         30752014                       # Total read bandwidth from this memory (bytes/s)
system.mem_ctrls.bw_read::total             538793625                       # Total read bandwidth from this memory (bytes/s)
system.mem_ctrls.bw_inst_read::cpu00.inst     12813870                       # Instruction read bandwidth from this memory (bytes/s)
system.mem_ctrls.bw_inst_read::cpu01.inst      1190359                       # Instruction read bandwidth from this memory (bytes/s)
system.mem_ctrls.bw_inst_read::cpu02.inst        82752                       # Instruction read bandwidth from this memory (bytes/s)
system.mem_ctrls.bw_inst_read::cpu03.inst        25462                       # Instruction read bandwidth from this memory (bytes/s)
system.mem_ctrls.bw_inst_read::cpu04.inst        19097                       # Instruction read bandwidth from this memory (bytes/s)
system.mem_ctrls.bw_inst_read::cpu05.inst        25462                       # Instruction read bandwidth from this memory (bytes/s)
system.mem_ctrls.bw_inst_read::cpu06.inst        31828                       # Instruction read bandwidth from this memory (bytes/s)
system.mem_ctrls.bw_inst_read::cpu07.inst        31828                       # Instruction read bandwidth from this memory (bytes/s)
system.mem_ctrls.bw_inst_read::cpu08.inst        31828                       # Instruction read bandwidth from this memory (bytes/s)
system.mem_ctrls.bw_inst_read::cpu09.inst         6366                       # Instruction read bandwidth from this memory (bytes/s)
system.mem_ctrls.bw_inst_read::cpu10.inst        12731                       # Instruction read bandwidth from this memory (bytes/s)
system.mem_ctrls.bw_inst_read::cpu12.inst       127311                       # Instruction read bandwidth from this memory (bytes/s)
system.mem_ctrls.bw_inst_read::cpu13.inst         6366                       # Instruction read bandwidth from this memory (bytes/s)
system.mem_ctrls.bw_inst_read::cpu14.inst         6366                       # Instruction read bandwidth from this memory (bytes/s)
system.mem_ctrls.bw_inst_read::cpu15.inst        50924                       # Instruction read bandwidth from this memory (bytes/s)
system.mem_ctrls.bw_inst_read::total         14462550                       # Instruction read bandwidth from this memory (bytes/s)
system.mem_ctrls.bw_write::writebacks       267544435                       # Write bandwidth from this memory (bytes/s)
system.mem_ctrls.bw_write::total            267544435                       # Write bandwidth from this memory (bytes/s)
system.mem_ctrls.bw_total::writebacks       267544435                       # Total bandwidth to/from this memory (bytes/s)
system.mem_ctrls.bw_total::cpu00.inst        12813870                       # Total bandwidth to/from this memory (bytes/s)
system.mem_ctrls.bw_total::cpu00.data        61351255                       # Total bandwidth to/from this memory (bytes/s)
system.mem_ctrls.bw_total::cpu01.inst         1190359                       # Total bandwidth to/from this memory (bytes/s)
system.mem_ctrls.bw_total::cpu01.data        30720187                       # Total bandwidth to/from this memory (bytes/s)
system.mem_ctrls.bw_total::cpu02.inst           82752                       # Total bandwidth to/from this memory (bytes/s)
system.mem_ctrls.bw_total::cpu02.data        27059990                       # Total bandwidth to/from this memory (bytes/s)
system.mem_ctrls.bw_total::cpu03.inst           25462                       # Total bandwidth to/from this memory (bytes/s)
system.mem_ctrls.bw_total::cpu03.data        28536800                       # Total bandwidth to/from this memory (bytes/s)
system.mem_ctrls.bw_total::cpu04.inst           19097                       # Total bandwidth to/from this memory (bytes/s)
system.mem_ctrls.bw_total::cpu04.data        29440709                       # Total bandwidth to/from this memory (bytes/s)
system.mem_ctrls.bw_total::cpu05.inst           25462                       # Total bandwidth to/from this memory (bytes/s)
system.mem_ctrls.bw_total::cpu05.data        34036643                       # Total bandwidth to/from this memory (bytes/s)
system.mem_ctrls.bw_total::cpu06.inst           31828                       # Total bandwidth to/from this memory (bytes/s)
system.mem_ctrls.bw_total::cpu06.data        28103942                       # Total bandwidth to/from this memory (bytes/s)
system.mem_ctrls.bw_total::cpu07.inst           31828                       # Total bandwidth to/from this memory (bytes/s)
system.mem_ctrls.bw_total::cpu07.data        30752014                       # Total bandwidth to/from this memory (bytes/s)
system.mem_ctrls.bw_total::cpu08.inst           31828                       # Total bandwidth to/from this memory (bytes/s)
system.mem_ctrls.bw_total::cpu08.data        34558619                       # Total bandwidth to/from this memory (bytes/s)
system.mem_ctrls.bw_total::cpu09.inst            6366                       # Total bandwidth to/from this memory (bytes/s)
system.mem_ctrls.bw_total::cpu09.data        32356135                       # Total bandwidth to/from this memory (bytes/s)
system.mem_ctrls.bw_total::cpu10.inst           12731                       # Total bandwidth to/from this memory (bytes/s)
system.mem_ctrls.bw_total::cpu10.data        29096969                       # Total bandwidth to/from this memory (bytes/s)
system.mem_ctrls.bw_total::cpu11.data        27709277                       # Total bandwidth to/from this memory (bytes/s)
system.mem_ctrls.bw_total::cpu12.inst          127311                       # Total bandwidth to/from this memory (bytes/s)
system.mem_ctrls.bw_total::cpu12.data        33336431                       # Total bandwidth to/from this memory (bytes/s)
system.mem_ctrls.bw_total::cpu13.inst            6366                       # Total bandwidth to/from this memory (bytes/s)
system.mem_ctrls.bw_total::cpu13.data        34151223                       # Total bandwidth to/from this memory (bytes/s)
system.mem_ctrls.bw_total::cpu14.inst            6366                       # Total bandwidth to/from this memory (bytes/s)
system.mem_ctrls.bw_total::cpu14.data        32368866                       # Total bandwidth to/from this memory (bytes/s)
system.mem_ctrls.bw_total::cpu15.inst           50924                       # Total bandwidth to/from this memory (bytes/s)
system.mem_ctrls.bw_total::cpu15.data        30752014                       # Total bandwidth to/from this memory (bytes/s)
system.mem_ctrls.bw_total::total            806338061                       # Total bandwidth to/from this memory (bytes/s)
system.cpu00.branchPred.lookups                332899                       # Number of BP lookups
system.cpu00.branchPred.condPredicted          167476                       # Number of conditional branches predicted
system.cpu00.branchPred.condIncorrect            5328                       # Number of conditional branches incorrect
system.cpu00.branchPred.BTBLookups             233330                       # Number of BTB lookups
system.cpu00.branchPred.BTBHits                210831                       # Number of BTB hits
system.cpu00.branchPred.BTBCorrect                  0                       # Number of correct BTB predictions (this stat may not work properly.
system.cpu00.branchPred.BTBHitPct           90.357434                       # BTB Hit Percentage
system.cpu00.branchPred.usedRAS                 79752                       # Number of times the RAS was used to get a target.
system.cpu00.branchPred.RASInCorrect               84                       # Number of incorrect RAS predictions.
system.cpu00.branchPred.indirectLookups          1708                       # Number of indirect predictor lookups.
system.cpu00.branchPred.indirectHits              973                       # Number of indirect target hits.
system.cpu00.branchPred.indirectMisses            735                       # Number of indirect misses.
system.cpu00.branchPredindirectMispredicted          227                       # Number of mispredicted indirect branches.
system.cpu_voltage_domain.voltage                   1                       # Voltage in Volts
system.cpu_clk_domain.clock                      1161                       # Clock period in ticks
system.cpu00.dtb.fetch_hits                         0                       # ITB hits
system.cpu00.dtb.fetch_misses                       0                       # ITB misses
system.cpu00.dtb.fetch_acv                          0                       # ITB acv
system.cpu00.dtb.fetch_accesses                     0                       # ITB accesses
system.cpu00.dtb.read_hits                    1167410                       # DTB read hits
system.cpu00.dtb.read_misses                     7838                       # DTB read misses
system.cpu00.dtb.read_acv                           2                       # DTB read access violations
system.cpu00.dtb.read_accesses                1175248                       # DTB read accesses
system.cpu00.dtb.write_hits                    342703                       # DTB write hits
system.cpu00.dtb.write_misses                   54980                       # DTB write misses
system.cpu00.dtb.write_acv                          0                       # DTB write access violations
system.cpu00.dtb.write_accesses                397683                       # DTB write accesses
system.cpu00.dtb.data_hits                    1510113                       # DTB hits
system.cpu00.dtb.data_misses                    62818                       # DTB misses
system.cpu00.dtb.data_acv                           2                       # DTB access violations
system.cpu00.dtb.data_accesses                1572931                       # DTB accesses
system.cpu00.itb.fetch_hits                    767644                       # ITB hits
system.cpu00.itb.fetch_misses                     171                       # ITB misses
system.cpu00.itb.fetch_acv                          0                       # ITB acv
system.cpu00.itb.fetch_accesses                767815                       # ITB accesses
system.cpu00.itb.read_hits                          0                       # DTB read hits
system.cpu00.itb.read_misses                        0                       # DTB read misses
system.cpu00.itb.read_acv                           0                       # DTB read access violations
system.cpu00.itb.read_accesses                      0                       # DTB read accesses
system.cpu00.itb.write_hits                         0                       # DTB write hits
system.cpu00.itb.write_misses                       0                       # DTB write misses
system.cpu00.itb.write_acv                          0                       # DTB write access violations
system.cpu00.itb.write_accesses                     0                       # DTB write accesses
system.cpu00.itb.data_hits                          0                       # DTB hits
system.cpu00.itb.data_misses                        0                       # DTB misses
system.cpu00.itb.data_acv                           0                       # DTB access violations
system.cpu00.itb.data_accesses                      0                       # DTB accesses
system.cpu00.workload.num_syscalls               1707                       # Number of system calls
system.cpu00.numCycles                        8471828                       # number of cpu cycles simulated
system.cpu00.numWorkItemsStarted                    0                       # number of work items this cpu started
system.cpu00.numWorkItemsCompleted                  0                       # number of work items this cpu completed
system.cpu00.fetch.icacheStallCycles            86065                       # Number of cycles fetch is stalled on an Icache miss
system.cpu00.fetch.Insts                      7376289                       # Number of instructions fetch has processed
system.cpu00.fetch.Branches                    332899                       # Number of branches that fetch encountered
system.cpu00.fetch.predictedBranches           291556                       # Number of branches that fetch has predicted taken
system.cpu00.fetch.Cycles                     8142150                       # Number of cycles fetch has run and was not squashing or blocked
system.cpu00.fetch.SquashCycles                 48506                       # Number of cycles fetch has spent squashing
system.cpu00.fetch.MiscStallCycles                 99                       # Number of cycles fetch has spent waiting on interrupts, or bad addresses, or out of MSHRs
system.cpu00.fetch.PendingTrapStallCycles         6911                       # Number of stall cycles due to pending traps
system.cpu00.fetch.IcacheWaitRetryStallCycles           74                       # Number of stall cycles due to full MSHR
system.cpu00.fetch.CacheLines                  767644                       # Number of cache lines fetched
system.cpu00.fetch.IcacheSquashes                2504                       # Number of outstanding Icache misses that were squashed
system.cpu00.fetch.rateDist::samples          8259552                       # Number of instructions fetched each cycle (Total)
system.cpu00.fetch.rateDist::mean            0.893062                       # Number of instructions fetched each cycle (Total)
system.cpu00.fetch.rateDist::stdev           2.251871                       # Number of instructions fetched each cycle (Total)
system.cpu00.fetch.rateDist::underflows             0      0.00%      0.00% # Number of instructions fetched each cycle (Total)
system.cpu00.fetch.rateDist::0                6906941     83.62%     83.62% # Number of instructions fetched each cycle (Total)
system.cpu00.fetch.rateDist::1                  35767      0.43%     84.06% # Number of instructions fetched each cycle (Total)
system.cpu00.fetch.rateDist::2                 258428      3.13%     87.19% # Number of instructions fetched each cycle (Total)
system.cpu00.fetch.rateDist::3                  30736      0.37%     87.56% # Number of instructions fetched each cycle (Total)
system.cpu00.fetch.rateDist::4                 268836      3.25%     90.81% # Number of instructions fetched each cycle (Total)
system.cpu00.fetch.rateDist::5                  49803      0.60%     91.42% # Number of instructions fetched each cycle (Total)
system.cpu00.fetch.rateDist::6                  89146      1.08%     92.49% # Number of instructions fetched each cycle (Total)
system.cpu00.fetch.rateDist::7                  86937      1.05%     93.55% # Number of instructions fetched each cycle (Total)
system.cpu00.fetch.rateDist::8                 532958      6.45%    100.00% # Number of instructions fetched each cycle (Total)
system.cpu00.fetch.rateDist::overflows              0      0.00%    100.00% # Number of instructions fetched each cycle (Total)
system.cpu00.fetch.rateDist::min_value              0                       # Number of instructions fetched each cycle (Total)
system.cpu00.fetch.rateDist::max_value              8                       # Number of instructions fetched each cycle (Total)
system.cpu00.fetch.rateDist::total            8259552                       # Number of instructions fetched each cycle (Total)
system.cpu00.fetch.branchRate                0.039295                       # Number of branch fetches per cycle
system.cpu00.fetch.rate                      0.870684                       # Number of inst fetches per cycle
system.cpu00.decode.IdleCycles                 255654                       # Number of cycles decode is idle
system.cpu00.decode.BlockedCycles             7139173                       # Number of cycles decode is blocked
system.cpu00.decode.RunCycles                  333856                       # Number of cycles decode is running
system.cpu00.decode.UnblockCycles              508290                       # Number of cycles decode is unblocking
system.cpu00.decode.SquashCycles                22579                       # Number of cycles decode is squashing
system.cpu00.decode.BranchResolved              81716                       # Number of times decode resolved a branch
system.cpu00.decode.BranchMispred                1722                       # Number of times decode detected a branch misprediction
system.cpu00.decode.DecodedInsts              6495186                       # Number of instructions handled by decode
system.cpu00.decode.SquashedInsts                7140                       # Number of squashed instructions handled by decode
system.cpu00.rename.SquashCycles                22579                       # Number of cycles rename is squashing
system.cpu00.rename.IdleCycles                 378668                       # Number of cycles rename is idle
system.cpu00.rename.BlockCycles               3171381                       # Number of cycles rename is blocking
system.cpu00.rename.serializeStallCycles        92679                       # count of cycles rename stalled for serializing inst
system.cpu00.rename.RunCycles                  641081                       # Number of cycles rename is running
system.cpu00.rename.UnblockCycles             3953164                       # Number of cycles rename is unblocking
system.cpu00.rename.RenamedInsts              6329735                       # Number of instructions processed by rename
system.cpu00.rename.ROBFullEvents                2510                       # Number of times rename has blocked due to ROB full
system.cpu00.rename.IQFullEvents              2079039                       # Number of times rename has blocked due to IQ full
system.cpu00.rename.LQFullEvents              1588386                       # Number of times rename has blocked due to LQ full
system.cpu00.rename.SQFullEvents               247337                       # Number of times rename has blocked due to SQ full
system.cpu00.rename.RenamedOperands           5429285                       # Number of destination operands rename has renamed
system.cpu00.rename.RenameLookups             9154384                       # Number of register rename lookups that rename has made
system.cpu00.rename.int_rename_lookups        5136074                       # Number of integer rename lookups
system.cpu00.rename.fp_rename_lookups         4018058                       # Number of floating rename lookups
system.cpu00.rename.CommittedMaps             3931232                       # Number of HB maps that are committed
system.cpu00.rename.UndoneMaps                1498053                       # Number of HB maps that are undone due to squashing
system.cpu00.rename.serializingInsts             2288                       # count of serializing insts renamed
system.cpu00.rename.tempSerializingInsts         1947                       # count of temporary serializing insts renamed
system.cpu00.rename.skidInsts                 3390272                       # count of insts added to the skid buffer
system.cpu00.memDep0.insertedLoads            1198006                       # Number of loads inserted to the mem dependence unit.
system.cpu00.memDep0.insertedStores            532760                       # Number of stores inserted to the mem dependence unit.
system.cpu00.memDep0.conflictingLoads          370930                       # Number of conflicting loads.
system.cpu00.memDep0.conflictingStores         200550                       # Number of conflicting stores.
system.cpu00.iq.iqInstsAdded                  6223382                       # Number of instructions added to the IQ (excludes non-spec)
system.cpu00.iq.iqNonSpecInstsAdded              3192                       # Number of non-speculative instructions added to the IQ
system.cpu00.iq.iqInstsIssued                 5896148                       # Number of instructions issued
system.cpu00.iq.iqSquashedInstsIssued            7674                       # Number of squashed instructions issued
system.cpu00.iq.iqSquashedInstsExamined       1880537                       # Number of squashed instructions iterated over during squash; mainly for profiling
system.cpu00.iq.iqSquashedOperandsExamined       815461                       # Number of squashed operands that are examined and possibly removed from graph
system.cpu00.iq.iqSquashedNonSpecRemoved          489                       # Number of squashed non-spec instructions that were removed
system.cpu00.iq.issued_per_cycle::samples      8259552                       # Number of insts issued each cycle
system.cpu00.iq.issued_per_cycle::mean       0.713858                       # Number of insts issued each cycle
system.cpu00.iq.issued_per_cycle::stdev      1.207568                       # Number of insts issued each cycle
system.cpu00.iq.issued_per_cycle::underflows            0      0.00%      0.00% # Number of insts issued each cycle
system.cpu00.iq.issued_per_cycle::0           4804777     58.17%     58.17% # Number of insts issued each cycle
system.cpu00.iq.issued_per_cycle::1           2233148     27.04%     85.21% # Number of insts issued each cycle
system.cpu00.iq.issued_per_cycle::2            708539      8.58%     93.79% # Number of insts issued each cycle
system.cpu00.iq.issued_per_cycle::3            219522      2.66%     96.45% # Number of insts issued each cycle
system.cpu00.iq.issued_per_cycle::4            114162      1.38%     97.83% # Number of insts issued each cycle
system.cpu00.iq.issued_per_cycle::5             64051      0.78%     98.60% # Number of insts issued each cycle
system.cpu00.iq.issued_per_cycle::6             42686      0.52%     99.12% # Number of insts issued each cycle
system.cpu00.iq.issued_per_cycle::7             26999      0.33%     99.45% # Number of insts issued each cycle
system.cpu00.iq.issued_per_cycle::8             45668      0.55%    100.00% # Number of insts issued each cycle
system.cpu00.iq.issued_per_cycle::overflows            0      0.00%    100.00% # Number of insts issued each cycle
system.cpu00.iq.issued_per_cycle::min_value            0                       # Number of insts issued each cycle
system.cpu00.iq.issued_per_cycle::max_value            8                       # Number of insts issued each cycle
system.cpu00.iq.issued_per_cycle::total       8259552                       # Number of insts issued each cycle
system.cpu00.iq.fu_full::No_OpClass                 0      0.00%      0.00% # attempts to use FU when none available
system.cpu00.iq.fu_full::IntAlu                  4138      9.35%      9.35% # attempts to use FU when none available
system.cpu00.iq.fu_full::IntMult                    0      0.00%      9.35% # attempts to use FU when none available
system.cpu00.iq.fu_full::IntDiv                     0      0.00%      9.35% # attempts to use FU when none available
system.cpu00.iq.fu_full::FloatAdd                   0      0.00%      9.35% # attempts to use FU when none available
system.cpu00.iq.fu_full::FloatCmp                   0      0.00%      9.35% # attempts to use FU when none available
system.cpu00.iq.fu_full::FloatCvt                   0      0.00%      9.35% # attempts to use FU when none available
system.cpu00.iq.fu_full::FloatMult               8237     18.62%     27.97% # attempts to use FU when none available
system.cpu00.iq.fu_full::FloatDiv                   0      0.00%     27.97% # attempts to use FU when none available
system.cpu00.iq.fu_full::FloatSqrt                  0      0.00%     27.97% # attempts to use FU when none available
system.cpu00.iq.fu_full::SimdAdd                    0      0.00%     27.97% # attempts to use FU when none available
system.cpu00.iq.fu_full::SimdAddAcc                 0      0.00%     27.97% # attempts to use FU when none available
system.cpu00.iq.fu_full::SimdAlu                    0      0.00%     27.97% # attempts to use FU when none available
system.cpu00.iq.fu_full::SimdCmp                    0      0.00%     27.97% # attempts to use FU when none available
system.cpu00.iq.fu_full::SimdCvt                    0      0.00%     27.97% # attempts to use FU when none available
system.cpu00.iq.fu_full::SimdMisc                   0      0.00%     27.97% # attempts to use FU when none available
system.cpu00.iq.fu_full::SimdMult                   0      0.00%     27.97% # attempts to use FU when none available
system.cpu00.iq.fu_full::SimdMultAcc                0      0.00%     27.97% # attempts to use FU when none available
system.cpu00.iq.fu_full::SimdShift                  0      0.00%     27.97% # attempts to use FU when none available
system.cpu00.iq.fu_full::SimdShiftAcc               0      0.00%     27.97% # attempts to use FU when none available
system.cpu00.iq.fu_full::SimdSqrt                   0      0.00%     27.97% # attempts to use FU when none available
system.cpu00.iq.fu_full::SimdFloatAdd               0      0.00%     27.97% # attempts to use FU when none available
system.cpu00.iq.fu_full::SimdFloatAlu               0      0.00%     27.97% # attempts to use FU when none available
system.cpu00.iq.fu_full::SimdFloatCmp               0      0.00%     27.97% # attempts to use FU when none available
system.cpu00.iq.fu_full::SimdFloatCvt               0      0.00%     27.97% # attempts to use FU when none available
system.cpu00.iq.fu_full::SimdFloatDiv               0      0.00%     27.97% # attempts to use FU when none available
system.cpu00.iq.fu_full::SimdFloatMisc              0      0.00%     27.97% # attempts to use FU when none available
system.cpu00.iq.fu_full::SimdFloatMult              0      0.00%     27.97% # attempts to use FU when none available
system.cpu00.iq.fu_full::SimdFloatMultAcc            0      0.00%     27.97% # attempts to use FU when none available
system.cpu00.iq.fu_full::SimdFloatSqrt              0      0.00%     27.97% # attempts to use FU when none available
system.cpu00.iq.fu_full::MemRead                24780     56.01%     83.98% # attempts to use FU when none available
system.cpu00.iq.fu_full::MemWrite                7087     16.02%    100.00% # attempts to use FU when none available
system.cpu00.iq.fu_full::IprAccess                  0      0.00%    100.00% # attempts to use FU when none available
system.cpu00.iq.fu_full::InstPrefetch               0      0.00%    100.00% # attempts to use FU when none available
system.cpu00.iq.FU_type_0::No_OpClass               0      0.00%      0.00% # Type of FU issued
system.cpu00.iq.FU_type_0::IntAlu             1750601     29.69%     29.69% # Type of FU issued
system.cpu00.iq.FU_type_0::IntMult                250      0.00%     29.69% # Type of FU issued
system.cpu00.iq.FU_type_0::IntDiv                   0      0.00%     29.69% # Type of FU issued
system.cpu00.iq.FU_type_0::FloatAdd           1713536     29.06%     58.76% # Type of FU issued
system.cpu00.iq.FU_type_0::FloatCmp                11      0.00%     58.76% # Type of FU issued
system.cpu00.iq.FU_type_0::FloatCvt                 0      0.00%     58.76% # Type of FU issued
system.cpu00.iq.FU_type_0::FloatMult           852373     14.46%     73.21% # Type of FU issued
system.cpu00.iq.FU_type_0::FloatDiv                 0      0.00%     73.21% # Type of FU issued
system.cpu00.iq.FU_type_0::FloatSqrt                0      0.00%     73.21% # Type of FU issued
system.cpu00.iq.FU_type_0::SimdAdd                  0      0.00%     73.21% # Type of FU issued
system.cpu00.iq.FU_type_0::SimdAddAcc               0      0.00%     73.21% # Type of FU issued
system.cpu00.iq.FU_type_0::SimdAlu                  0      0.00%     73.21% # Type of FU issued
system.cpu00.iq.FU_type_0::SimdCmp                  0      0.00%     73.21% # Type of FU issued
system.cpu00.iq.FU_type_0::SimdCvt                  0      0.00%     73.21% # Type of FU issued
system.cpu00.iq.FU_type_0::SimdMisc                 0      0.00%     73.21% # Type of FU issued
system.cpu00.iq.FU_type_0::SimdMult                 0      0.00%     73.21% # Type of FU issued
system.cpu00.iq.FU_type_0::SimdMultAcc              0      0.00%     73.21% # Type of FU issued
system.cpu00.iq.FU_type_0::SimdShift                0      0.00%     73.21% # Type of FU issued
system.cpu00.iq.FU_type_0::SimdShiftAcc             0      0.00%     73.21% # Type of FU issued
system.cpu00.iq.FU_type_0::SimdSqrt                 0      0.00%     73.21% # Type of FU issued
system.cpu00.iq.FU_type_0::SimdFloatAdd             0      0.00%     73.21% # Type of FU issued
system.cpu00.iq.FU_type_0::SimdFloatAlu             0      0.00%     73.21% # Type of FU issued
system.cpu00.iq.FU_type_0::SimdFloatCmp             0      0.00%     73.21% # Type of FU issued
system.cpu00.iq.FU_type_0::SimdFloatCvt             0      0.00%     73.21% # Type of FU issued
system.cpu00.iq.FU_type_0::SimdFloatDiv             0      0.00%     73.21% # Type of FU issued
system.cpu00.iq.FU_type_0::SimdFloatMisc            0      0.00%     73.21% # Type of FU issued
system.cpu00.iq.FU_type_0::SimdFloatMult            0      0.00%     73.21% # Type of FU issued
system.cpu00.iq.FU_type_0::SimdFloatMultAcc            0      0.00%     73.21% # Type of FU issued
system.cpu00.iq.FU_type_0::SimdFloatSqrt            0      0.00%     73.21% # Type of FU issued
system.cpu00.iq.FU_type_0::MemRead            1179684     20.01%     93.22% # Type of FU issued
system.cpu00.iq.FU_type_0::MemWrite            399693      6.78%    100.00% # Type of FU issued
system.cpu00.iq.FU_type_0::IprAccess                0      0.00%    100.00% # Type of FU issued
system.cpu00.iq.FU_type_0::InstPrefetch             0      0.00%    100.00% # Type of FU issued
system.cpu00.iq.FU_type_0::total              5896148                       # Type of FU issued
system.cpu00.iq.rate                         0.695971                       # Inst issue rate
system.cpu00.iq.fu_busy_cnt                     44242                       # FU busy when requested
system.cpu00.iq.fu_busy_rate                 0.007504                       # FU busy rate (busy events/executed inst)
system.cpu00.iq.int_inst_queue_reads         14372071                       # Number of integer instruction queue reads
system.cpu00.iq.int_inst_queue_writes         5243629                       # Number of integer instruction queue writes
system.cpu00.iq.int_inst_queue_wakeup_accesses      2844453                       # Number of integer instruction queue wakeup accesses
system.cpu00.iq.fp_inst_queue_reads           5731693                       # Number of floating instruction queue reads
system.cpu00.iq.fp_inst_queue_writes          2863984                       # Number of floating instruction queue writes
system.cpu00.iq.fp_inst_queue_wakeup_accesses      2861603                       # Number of floating instruction queue wakeup accesses
system.cpu00.iq.int_alu_accesses              3070387                       # Number of integer alu accesses
system.cpu00.iq.fp_alu_accesses               2870003                       # Number of floating point alu accesses
system.cpu00.iew.lsq.thread0.forwLoads           9484                       # Number of loads that had data forwarded from stores
system.cpu00.iew.lsq.thread0.invAddrLoads            0                       # Number of loads ignored due to an invalid address
system.cpu00.iew.lsq.thread0.squashedLoads       595183                       # Number of loads squashed
system.cpu00.iew.lsq.thread0.ignoredResponses           44                       # Number of memory responses ignored because the instruction is squashed
system.cpu00.iew.lsq.thread0.memOrderViolation          510                       # Number of memory ordering violations
system.cpu00.iew.lsq.thread0.squashedStores       320632                       # Number of stores squashed
system.cpu00.iew.lsq.thread0.invAddrSwpfs            0                       # Number of software prefetches ignored due to an invalid address
system.cpu00.iew.lsq.thread0.blockedLoads            0                       # Number of blocked loads due to partial load-store forwarding
system.cpu00.iew.lsq.thread0.rescheduledLoads          261                       # Number of loads that were rescheduled
system.cpu00.iew.lsq.thread0.cacheBlocked       104375                       # Number of times an access to memory failed due to the cache being blocked
system.cpu00.iew.iewIdleCycles                      0                       # Number of cycles IEW is idle
system.cpu00.iew.iewSquashCycles                22579                       # Number of cycles IEW is squashing
system.cpu00.iew.iewBlockCycles                903811                       # Number of cycles IEW is blocking
system.cpu00.iew.iewUnblockCycles              953433                       # Number of cycles IEW is unblocking
system.cpu00.iew.iewDispatchedInsts           6292855                       # Number of instructions dispatched to IQ
system.cpu00.iew.iewDispSquashedInsts            1164                       # Number of squashed instructions skipped by dispatch
system.cpu00.iew.iewDispLoadInsts             1198006                       # Number of dispatched load instructions
system.cpu00.iew.iewDispStoreInsts             532760                       # Number of dispatched store instructions
system.cpu00.iew.iewDispNonSpecInsts             1867                       # Number of dispatched non-speculative instructions
system.cpu00.iew.iewIQFullEvents                43503                       # Number of times the IQ has become full, causing a stall
system.cpu00.iew.iewLSQFullEvents              805367                       # Number of times the LSQ has become full, causing a stall
system.cpu00.iew.memOrderViolationEvents          510                       # Number of memory order violations
system.cpu00.iew.predictedTakenIncorrect         1494                       # Number of branches that were predicted taken incorrectly
system.cpu00.iew.predictedNotTakenIncorrect         2926                       # Number of branches that were predicted not taken incorrectly
system.cpu00.iew.branchMispredicts               4420                       # Number of branch mispredicts detected at execute
system.cpu00.iew.iewExecutedInsts             5887535                       # Number of executed instructions
system.cpu00.iew.iewExecLoadInsts             1175265                       # Number of load instructions executed
system.cpu00.iew.iewExecSquashedInsts            8613                       # Number of squashed instructions skipped in execute
system.cpu00.iew.exec_swp                           0                       # number of swp insts executed
system.cpu00.iew.exec_nop                       66281                       # number of nop insts executed
system.cpu00.iew.exec_refs                    1572957                       # number of memory reference insts executed
system.cpu00.iew.exec_branches                 287771                       # Number of branches executed
system.cpu00.iew.exec_stores                   397692                       # Number of stores executed
system.cpu00.iew.exec_rate                   0.694955                       # Inst execution rate
system.cpu00.iew.wb_sent                      5770882                       # cumulative count of insts sent to commit
system.cpu00.iew.wb_count                     5706056                       # cumulative count of insts written-back
system.cpu00.iew.wb_producers                 4511134                       # num instructions producing a value
system.cpu00.iew.wb_consumers                 5911671                       # num instructions consuming a value
system.cpu00.iew.wb_rate                     0.673533                       # insts written-back per cycle
system.cpu00.iew.wb_fanout                   0.763089                       # average fanout of values written-back
system.cpu00.commit.commitSquashedInsts       1880697                       # The number of squashed insts skipped by commit
system.cpu00.commit.commitNonSpecStalls          2703                       # The number of times commit has been forced to stall to communicate backwards
system.cpu00.commit.branchMispredicts            3654                       # The number of times a branch was mispredicted
system.cpu00.commit.committed_per_cycle::samples      8011544                       # Number of insts commited each cycle
system.cpu00.commit.committed_per_cycle::mean     0.549755                       # Number of insts commited each cycle
system.cpu00.commit.committed_per_cycle::stdev     1.303821                       # Number of insts commited each cycle
system.cpu00.commit.committed_per_cycle::underflows            0      0.00%      0.00% # Number of insts commited each cycle
system.cpu00.commit.committed_per_cycle::0      5790859     72.28%     72.28% # Number of insts commited each cycle
system.cpu00.commit.committed_per_cycle::1      1331955     16.63%     88.91% # Number of insts commited each cycle
system.cpu00.commit.committed_per_cycle::2       494733      6.18%     95.08% # Number of insts commited each cycle
system.cpu00.commit.committed_per_cycle::3       139713      1.74%     96.83% # Number of insts commited each cycle
system.cpu00.commit.committed_per_cycle::4        20701      0.26%     97.08% # Number of insts commited each cycle
system.cpu00.commit.committed_per_cycle::5        80332      1.00%     98.09% # Number of insts commited each cycle
system.cpu00.commit.committed_per_cycle::6        12185      0.15%     98.24% # Number of insts commited each cycle
system.cpu00.commit.committed_per_cycle::7        22277      0.28%     98.52% # Number of insts commited each cycle
system.cpu00.commit.committed_per_cycle::8       118789      1.48%    100.00% # Number of insts commited each cycle
system.cpu00.commit.committed_per_cycle::overflows            0      0.00%    100.00% # Number of insts commited each cycle
system.cpu00.commit.committed_per_cycle::min_value            0                       # Number of insts commited each cycle
system.cpu00.commit.committed_per_cycle::max_value            8                       # Number of insts commited each cycle
system.cpu00.commit.committed_per_cycle::total      8011544                       # Number of insts commited each cycle
system.cpu00.commit.committedInsts            4404385                       # Number of instructions committed
system.cpu00.commit.committedOps              4404385                       # Number of ops (including micro ops) committed
system.cpu00.commit.swp_count                       0                       # Number of s/w prefetches committed
system.cpu00.commit.refs                       814951                       # Number of memory references committed
system.cpu00.commit.loads                      602823                       # Number of loads committed
system.cpu00.commit.membars                      1140                       # Number of memory barriers committed
system.cpu00.commit.branches                   242103                       # Number of branches committed
system.cpu00.commit.fp_insts                  2860888                       # Number of committed floating point instructions.
system.cpu00.commit.int_insts                 1784951                       # Number of committed integer instructions.
system.cpu00.commit.function_calls              75183                       # Number of function calls committed.
system.cpu00.commit.op_class_0::No_OpClass        58349      1.32%      1.32% # Class of committed instruction
system.cpu00.commit.op_class_0::IntAlu         964372     21.90%     23.22% # Class of committed instruction
system.cpu00.commit.op_class_0::IntMult           244      0.01%     23.23% # Class of committed instruction
system.cpu00.commit.op_class_0::IntDiv              0      0.00%     23.23% # Class of committed instruction
system.cpu00.commit.op_class_0::FloatAdd      1713053     38.89%     62.12% # Class of committed instruction
system.cpu00.commit.op_class_0::FloatCmp           10      0.00%     62.12% # Class of committed instruction
system.cpu00.commit.op_class_0::FloatCvt            0      0.00%     62.12% # Class of committed instruction
system.cpu00.commit.op_class_0::FloatMult       852265     19.35%     81.47% # Class of committed instruction
system.cpu00.commit.op_class_0::FloatDiv            0      0.00%     81.47% # Class of committed instruction
system.cpu00.commit.op_class_0::FloatSqrt            0      0.00%     81.47% # Class of committed instruction
system.cpu00.commit.op_class_0::SimdAdd             0      0.00%     81.47% # Class of committed instruction
system.cpu00.commit.op_class_0::SimdAddAcc            0      0.00%     81.47% # Class of committed instruction
system.cpu00.commit.op_class_0::SimdAlu             0      0.00%     81.47% # Class of committed instruction
system.cpu00.commit.op_class_0::SimdCmp             0      0.00%     81.47% # Class of committed instruction
system.cpu00.commit.op_class_0::SimdCvt             0      0.00%     81.47% # Class of committed instruction
system.cpu00.commit.op_class_0::SimdMisc            0      0.00%     81.47% # Class of committed instruction
system.cpu00.commit.op_class_0::SimdMult            0      0.00%     81.47% # Class of committed instruction
system.cpu00.commit.op_class_0::SimdMultAcc            0      0.00%     81.47% # Class of committed instruction
system.cpu00.commit.op_class_0::SimdShift            0      0.00%     81.47% # Class of committed instruction
system.cpu00.commit.op_class_0::SimdShiftAcc            0      0.00%     81.47% # Class of committed instruction
system.cpu00.commit.op_class_0::SimdSqrt            0      0.00%     81.47% # Class of committed instruction
system.cpu00.commit.op_class_0::SimdFloatAdd            0      0.00%     81.47% # Class of committed instruction
system.cpu00.commit.op_class_0::SimdFloatAlu            0      0.00%     81.47% # Class of committed instruction
system.cpu00.commit.op_class_0::SimdFloatCmp            0      0.00%     81.47% # Class of committed instruction
system.cpu00.commit.op_class_0::SimdFloatCvt            0      0.00%     81.47% # Class of committed instruction
system.cpu00.commit.op_class_0::SimdFloatDiv            0      0.00%     81.47% # Class of committed instruction
system.cpu00.commit.op_class_0::SimdFloatMisc            0      0.00%     81.47% # Class of committed instruction
system.cpu00.commit.op_class_0::SimdFloatMult            0      0.00%     81.47% # Class of committed instruction
system.cpu00.commit.op_class_0::SimdFloatMultAcc            0      0.00%     81.47% # Class of committed instruction
system.cpu00.commit.op_class_0::SimdFloatSqrt            0      0.00%     81.47% # Class of committed instruction
system.cpu00.commit.op_class_0::MemRead        603963     13.71%     95.18% # Class of committed instruction
system.cpu00.commit.op_class_0::MemWrite       212129      4.82%    100.00% # Class of committed instruction
system.cpu00.commit.op_class_0::IprAccess            0      0.00%    100.00% # Class of committed instruction
system.cpu00.commit.op_class_0::InstPrefetch            0      0.00%    100.00% # Class of committed instruction
system.cpu00.commit.op_class_0::total         4404385                       # Class of committed instruction
system.cpu00.commit.bw_lim_events              118789                       # number cycles where commit BW limit reached
system.cpu00.rob.rob_reads                   13937584                       # The number of ROB reads
system.cpu00.rob.rob_writes                  12818278                       # The number of ROB writes
system.cpu00.timesIdled                          1476                       # Number of times that the entire CPU went into an idle state and unscheduled itself
system.cpu00.idleCycles                        212276                       # Total number of cycles that the CPU has spent unscheduled due to idling
system.cpu00.quiesceCycles                     188040                       # Total number of cycles that CPU has spent quiesced or waiting for an interrupt
system.cpu00.committedInsts                   4346036                       # Number of Instructions Simulated
system.cpu00.committedOps                     4346036                       # Number of Ops (including micro ops) Simulated
system.cpu00.cpi                             1.949323                       # CPI: Cycles Per Instruction
system.cpu00.cpi_total                       1.949323                       # CPI: Total CPI of All Threads
system.cpu00.ipc                             0.512999                       # IPC: Instructions Per Cycle
system.cpu00.ipc_total                       0.512999                       # IPC: Total IPC of All Threads
system.cpu00.int_regfile_reads                4507143                       # number of integer regfile reads
system.cpu00.int_regfile_writes               2247908                       # number of integer regfile writes
system.cpu00.fp_regfile_reads                 4016756                       # number of floating regfile reads
system.cpu00.fp_regfile_writes                2836036                       # number of floating regfile writes
system.cpu00.misc_regfile_reads                  3024                       # number of misc regfile reads
system.cpu00.misc_regfile_writes                 2493                       # number of misc regfile writes
system.cpu00.dcache.tags.replacements           69035                       # number of replacements
system.cpu00.dcache.tags.tagsinuse          63.797835                       # Cycle average of tags in use
system.cpu00.dcache.tags.total_refs           1123933                       # Total number of references to valid blocks.
system.cpu00.dcache.tags.sampled_refs           69099                       # Sample count of references to valid blocks.
system.cpu00.dcache.tags.avg_refs           16.265547                       # Average number of references to valid blocks.
system.cpu00.dcache.tags.warmup_cycle        85990626                       # Cycle when the warmup percentage was hit.
system.cpu00.dcache.tags.occ_blocks::cpu00.data    63.797835                       # Average occupied blocks per requestor
system.cpu00.dcache.tags.occ_percent::cpu00.data     0.996841                       # Average percentage of cache occupancy
system.cpu00.dcache.tags.occ_percent::total     0.996841                       # Average percentage of cache occupancy
system.cpu00.dcache.tags.occ_task_id_blocks::1024           64                       # Occupied blocks per task id
system.cpu00.dcache.tags.age_task_id_blocks_1024::0           47                       # Occupied blocks per task id
system.cpu00.dcache.tags.age_task_id_blocks_1024::1           17                       # Occupied blocks per task id
system.cpu00.dcache.tags.occ_task_id_percent::1024            1                       # Percentage of cache occupancy per task id
system.cpu00.dcache.tags.tag_accesses         2622599                       # Number of tag accesses
system.cpu00.dcache.tags.data_accesses        2622599                       # Number of data accesses
system.cpu00.dcache.ReadReq_hits::cpu00.data       986936                       # number of ReadReq hits
system.cpu00.dcache.ReadReq_hits::total        986936                       # number of ReadReq hits
system.cpu00.dcache.WriteReq_hits::cpu00.data       134703                       # number of WriteReq hits
system.cpu00.dcache.WriteReq_hits::total       134703                       # number of WriteReq hits
system.cpu00.dcache.LoadLockedReq_hits::cpu00.data          970                       # number of LoadLockedReq hits
system.cpu00.dcache.LoadLockedReq_hits::total          970                       # number of LoadLockedReq hits
system.cpu00.dcache.StoreCondReq_hits::cpu00.data         1232                       # number of StoreCondReq hits
system.cpu00.dcache.StoreCondReq_hits::total         1232                       # number of StoreCondReq hits
system.cpu00.dcache.demand_hits::cpu00.data      1121639                       # number of demand (read+write) hits
system.cpu00.dcache.demand_hits::total        1121639                       # number of demand (read+write) hits
system.cpu00.dcache.overall_hits::cpu00.data      1121639                       # number of overall hits
system.cpu00.dcache.overall_hits::total       1121639                       # number of overall hits
system.cpu00.dcache.ReadReq_misses::cpu00.data        76295                       # number of ReadReq misses
system.cpu00.dcache.ReadReq_misses::total        76295                       # number of ReadReq misses
system.cpu00.dcache.WriteReq_misses::cpu00.data        76180                       # number of WriteReq misses
system.cpu00.dcache.WriteReq_misses::total        76180                       # number of WriteReq misses
system.cpu00.dcache.LoadLockedReq_misses::cpu00.data          325                       # number of LoadLockedReq misses
system.cpu00.dcache.LoadLockedReq_misses::total          325                       # number of LoadLockedReq misses
system.cpu00.dcache.StoreCondReq_misses::cpu00.data           13                       # number of StoreCondReq misses
system.cpu00.dcache.StoreCondReq_misses::total           13                       # number of StoreCondReq misses
system.cpu00.dcache.demand_misses::cpu00.data       152475                       # number of demand (read+write) misses
system.cpu00.dcache.demand_misses::total       152475                       # number of demand (read+write) misses
system.cpu00.dcache.overall_misses::cpu00.data       152475                       # number of overall misses
system.cpu00.dcache.overall_misses::total       152475                       # number of overall misses
system.cpu00.dcache.ReadReq_miss_latency::cpu00.data   5660248842                       # number of ReadReq miss cycles
system.cpu00.dcache.ReadReq_miss_latency::total   5660248842                       # number of ReadReq miss cycles
system.cpu00.dcache.WriteReq_miss_latency::cpu00.data  10637840807                       # number of WriteReq miss cycles
system.cpu00.dcache.WriteReq_miss_latency::total  10637840807                       # number of WriteReq miss cycles
system.cpu00.dcache.LoadLockedReq_miss_latency::cpu00.data      3554982                       # number of LoadLockedReq miss cycles
system.cpu00.dcache.LoadLockedReq_miss_latency::total      3554982                       # number of LoadLockedReq miss cycles
system.cpu00.dcache.StoreCondReq_miss_latency::cpu00.data       104490                       # number of StoreCondReq miss cycles
system.cpu00.dcache.StoreCondReq_miss_latency::total       104490                       # number of StoreCondReq miss cycles
system.cpu00.dcache.demand_miss_latency::cpu00.data  16298089649                       # number of demand (read+write) miss cycles
system.cpu00.dcache.demand_miss_latency::total  16298089649                       # number of demand (read+write) miss cycles
system.cpu00.dcache.overall_miss_latency::cpu00.data  16298089649                       # number of overall miss cycles
system.cpu00.dcache.overall_miss_latency::total  16298089649                       # number of overall miss cycles
system.cpu00.dcache.ReadReq_accesses::cpu00.data      1063231                       # number of ReadReq accesses(hits+misses)
system.cpu00.dcache.ReadReq_accesses::total      1063231                       # number of ReadReq accesses(hits+misses)
system.cpu00.dcache.WriteReq_accesses::cpu00.data       210883                       # number of WriteReq accesses(hits+misses)
system.cpu00.dcache.WriteReq_accesses::total       210883                       # number of WriteReq accesses(hits+misses)
system.cpu00.dcache.LoadLockedReq_accesses::cpu00.data         1295                       # number of LoadLockedReq accesses(hits+misses)
system.cpu00.dcache.LoadLockedReq_accesses::total         1295                       # number of LoadLockedReq accesses(hits+misses)
system.cpu00.dcache.StoreCondReq_accesses::cpu00.data         1245                       # number of StoreCondReq accesses(hits+misses)
system.cpu00.dcache.StoreCondReq_accesses::total         1245                       # number of StoreCondReq accesses(hits+misses)
system.cpu00.dcache.demand_accesses::cpu00.data      1274114                       # number of demand (read+write) accesses
system.cpu00.dcache.demand_accesses::total      1274114                       # number of demand (read+write) accesses
system.cpu00.dcache.overall_accesses::cpu00.data      1274114                       # number of overall (read+write) accesses
system.cpu00.dcache.overall_accesses::total      1274114                       # number of overall (read+write) accesses
system.cpu00.dcache.ReadReq_miss_rate::cpu00.data     0.071758                       # miss rate for ReadReq accesses
system.cpu00.dcache.ReadReq_miss_rate::total     0.071758                       # miss rate for ReadReq accesses
system.cpu00.dcache.WriteReq_miss_rate::cpu00.data     0.361243                       # miss rate for WriteReq accesses
system.cpu00.dcache.WriteReq_miss_rate::total     0.361243                       # miss rate for WriteReq accesses
system.cpu00.dcache.LoadLockedReq_miss_rate::cpu00.data     0.250965                       # miss rate for LoadLockedReq accesses
system.cpu00.dcache.LoadLockedReq_miss_rate::total     0.250965                       # miss rate for LoadLockedReq accesses
system.cpu00.dcache.StoreCondReq_miss_rate::cpu00.data     0.010442                       # miss rate for StoreCondReq accesses
system.cpu00.dcache.StoreCondReq_miss_rate::total     0.010442                       # miss rate for StoreCondReq accesses
system.cpu00.dcache.demand_miss_rate::cpu00.data     0.119671                       # miss rate for demand accesses
system.cpu00.dcache.demand_miss_rate::total     0.119671                       # miss rate for demand accesses
system.cpu00.dcache.overall_miss_rate::cpu00.data     0.119671                       # miss rate for overall accesses
system.cpu00.dcache.overall_miss_rate::total     0.119671                       # miss rate for overall accesses
system.cpu00.dcache.ReadReq_avg_miss_latency::cpu00.data 74188.988033                       # average ReadReq miss latency
system.cpu00.dcache.ReadReq_avg_miss_latency::total 74188.988033                       # average ReadReq miss latency
system.cpu00.dcache.WriteReq_avg_miss_latency::cpu00.data 139640.861210                       # average WriteReq miss latency
system.cpu00.dcache.WriteReq_avg_miss_latency::total 139640.861210                       # average WriteReq miss latency
system.cpu00.dcache.LoadLockedReq_avg_miss_latency::cpu00.data 10938.406154                       # average LoadLockedReq miss latency
system.cpu00.dcache.LoadLockedReq_avg_miss_latency::total 10938.406154                       # average LoadLockedReq miss latency
system.cpu00.dcache.StoreCondReq_avg_miss_latency::cpu00.data  8037.692308                       # average StoreCondReq miss latency
system.cpu00.dcache.StoreCondReq_avg_miss_latency::total  8037.692308                       # average StoreCondReq miss latency
system.cpu00.dcache.demand_avg_miss_latency::cpu00.data 106890.242000                       # average overall miss latency
system.cpu00.dcache.demand_avg_miss_latency::total 106890.242000                       # average overall miss latency
system.cpu00.dcache.overall_avg_miss_latency::cpu00.data 106890.242000                       # average overall miss latency
system.cpu00.dcache.overall_avg_miss_latency::total 106890.242000                       # average overall miss latency
system.cpu00.dcache.blocked_cycles::no_mshrs       339904                       # number of cycles access was blocked
system.cpu00.dcache.blocked_cycles::no_targets           14                       # number of cycles access was blocked
system.cpu00.dcache.blocked::no_mshrs           11343                       # number of cycles access was blocked
system.cpu00.dcache.blocked::no_targets             2                       # number of cycles access was blocked
system.cpu00.dcache.avg_blocked_cycles::no_mshrs    29.965970                       # average number of cycles each access was blocked
system.cpu00.dcache.avg_blocked_cycles::no_targets            7                       # average number of cycles each access was blocked
system.cpu00.dcache.fast_writes                     0                       # number of fast writes performed
system.cpu00.dcache.cache_copies                    0                       # number of cache copies performed
system.cpu00.dcache.writebacks::writebacks        63166                       # number of writebacks
system.cpu00.dcache.writebacks::total           63166                       # number of writebacks
system.cpu00.dcache.ReadReq_mshr_hits::cpu00.data        46286                       # number of ReadReq MSHR hits
system.cpu00.dcache.ReadReq_mshr_hits::total        46286                       # number of ReadReq MSHR hits
system.cpu00.dcache.WriteReq_mshr_hits::cpu00.data        37025                       # number of WriteReq MSHR hits
system.cpu00.dcache.WriteReq_mshr_hits::total        37025                       # number of WriteReq MSHR hits
system.cpu00.dcache.LoadLockedReq_mshr_hits::cpu00.data          140                       # number of LoadLockedReq MSHR hits
system.cpu00.dcache.LoadLockedReq_mshr_hits::total          140                       # number of LoadLockedReq MSHR hits
system.cpu00.dcache.demand_mshr_hits::cpu00.data        83311                       # number of demand (read+write) MSHR hits
system.cpu00.dcache.demand_mshr_hits::total        83311                       # number of demand (read+write) MSHR hits
system.cpu00.dcache.overall_mshr_hits::cpu00.data        83311                       # number of overall MSHR hits
system.cpu00.dcache.overall_mshr_hits::total        83311                       # number of overall MSHR hits
system.cpu00.dcache.ReadReq_mshr_misses::cpu00.data        30009                       # number of ReadReq MSHR misses
system.cpu00.dcache.ReadReq_mshr_misses::total        30009                       # number of ReadReq MSHR misses
system.cpu00.dcache.WriteReq_mshr_misses::cpu00.data        39155                       # number of WriteReq MSHR misses
system.cpu00.dcache.WriteReq_mshr_misses::total        39155                       # number of WriteReq MSHR misses
system.cpu00.dcache.LoadLockedReq_mshr_misses::cpu00.data          185                       # number of LoadLockedReq MSHR misses
system.cpu00.dcache.LoadLockedReq_mshr_misses::total          185                       # number of LoadLockedReq MSHR misses
system.cpu00.dcache.StoreCondReq_mshr_misses::cpu00.data           13                       # number of StoreCondReq MSHR misses
system.cpu00.dcache.StoreCondReq_mshr_misses::total           13                       # number of StoreCondReq MSHR misses
system.cpu00.dcache.demand_mshr_misses::cpu00.data        69164                       # number of demand (read+write) MSHR misses
system.cpu00.dcache.demand_mshr_misses::total        69164                       # number of demand (read+write) MSHR misses
system.cpu00.dcache.overall_mshr_misses::cpu00.data        69164                       # number of overall MSHR misses
system.cpu00.dcache.overall_mshr_misses::total        69164                       # number of overall MSHR misses
system.cpu00.dcache.ReadReq_mshr_miss_latency::cpu00.data   2607695397                       # number of ReadReq MSHR miss cycles
system.cpu00.dcache.ReadReq_mshr_miss_latency::total   2607695397                       # number of ReadReq MSHR miss cycles
system.cpu00.dcache.WriteReq_mshr_miss_latency::cpu00.data   4853087106                       # number of WriteReq MSHR miss cycles
system.cpu00.dcache.WriteReq_mshr_miss_latency::total   4853087106                       # number of WriteReq MSHR miss cycles
system.cpu00.dcache.LoadLockedReq_mshr_miss_latency::cpu00.data      1619595                       # number of LoadLockedReq MSHR miss cycles
system.cpu00.dcache.LoadLockedReq_mshr_miss_latency::total      1619595                       # number of LoadLockedReq MSHR miss cycles
system.cpu00.dcache.StoreCondReq_mshr_miss_latency::cpu00.data        89397                       # number of StoreCondReq MSHR miss cycles
system.cpu00.dcache.StoreCondReq_mshr_miss_latency::total        89397                       # number of StoreCondReq MSHR miss cycles
system.cpu00.dcache.demand_mshr_miss_latency::cpu00.data   7460782503                       # number of demand (read+write) MSHR miss cycles
system.cpu00.dcache.demand_mshr_miss_latency::total   7460782503                       # number of demand (read+write) MSHR miss cycles
system.cpu00.dcache.overall_mshr_miss_latency::cpu00.data   7460782503                       # number of overall MSHR miss cycles
system.cpu00.dcache.overall_mshr_miss_latency::total   7460782503                       # number of overall MSHR miss cycles
system.cpu00.dcache.ReadReq_mshr_miss_rate::cpu00.data     0.028224                       # mshr miss rate for ReadReq accesses
system.cpu00.dcache.ReadReq_mshr_miss_rate::total     0.028224                       # mshr miss rate for ReadReq accesses
system.cpu00.dcache.WriteReq_mshr_miss_rate::cpu00.data     0.185672                       # mshr miss rate for WriteReq accesses
system.cpu00.dcache.WriteReq_mshr_miss_rate::total     0.185672                       # mshr miss rate for WriteReq accesses
system.cpu00.dcache.LoadLockedReq_mshr_miss_rate::cpu00.data     0.142857                       # mshr miss rate for LoadLockedReq accesses
system.cpu00.dcache.LoadLockedReq_mshr_miss_rate::total     0.142857                       # mshr miss rate for LoadLockedReq accesses
system.cpu00.dcache.StoreCondReq_mshr_miss_rate::cpu00.data     0.010442                       # mshr miss rate for StoreCondReq accesses
system.cpu00.dcache.StoreCondReq_mshr_miss_rate::total     0.010442                       # mshr miss rate for StoreCondReq accesses
system.cpu00.dcache.demand_mshr_miss_rate::cpu00.data     0.054284                       # mshr miss rate for demand accesses
system.cpu00.dcache.demand_mshr_miss_rate::total     0.054284                       # mshr miss rate for demand accesses
system.cpu00.dcache.overall_mshr_miss_rate::cpu00.data     0.054284                       # mshr miss rate for overall accesses
system.cpu00.dcache.overall_mshr_miss_rate::total     0.054284                       # mshr miss rate for overall accesses
system.cpu00.dcache.ReadReq_avg_mshr_miss_latency::cpu00.data 86897.110767                       # average ReadReq mshr miss latency
system.cpu00.dcache.ReadReq_avg_mshr_miss_latency::total 86897.110767                       # average ReadReq mshr miss latency
system.cpu00.dcache.WriteReq_avg_mshr_miss_latency::cpu00.data 123945.526906                       # average WriteReq mshr miss latency
system.cpu00.dcache.WriteReq_avg_mshr_miss_latency::total 123945.526906                       # average WriteReq mshr miss latency
system.cpu00.dcache.LoadLockedReq_avg_mshr_miss_latency::cpu00.data  8754.567568                       # average LoadLockedReq mshr miss latency
system.cpu00.dcache.LoadLockedReq_avg_mshr_miss_latency::total  8754.567568                       # average LoadLockedReq mshr miss latency
system.cpu00.dcache.StoreCondReq_avg_mshr_miss_latency::cpu00.data  6876.692308                       # average StoreCondReq mshr miss latency
system.cpu00.dcache.StoreCondReq_avg_mshr_miss_latency::total  6876.692308                       # average StoreCondReq mshr miss latency
system.cpu00.dcache.demand_avg_mshr_miss_latency::cpu00.data 107870.893861                       # average overall mshr miss latency
system.cpu00.dcache.demand_avg_mshr_miss_latency::total 107870.893861                       # average overall mshr miss latency
[...]
system.tol2bus.pkt_count_system.cpu06.dcache.mem_side::system.l2.cpu_side       163506                       # Packet count per connected master and slave (bytes)
system.tol2bus.pkt_count_system.cpu07.icache.mem_side::system.l2.cpu_side         1006                       # Packet count per connected master and slave (bytes)
system.tol2bus.pkt_count_system.cpu07.dcache.mem_side::system.l2.cpu_side       157320                       # Packet count per connected master and slave (bytes)
system.tol2bus.pkt_count_system.cpu08.icache.mem_side::system.l2.cpu_side          850                       # Packet count per connected master and slave (bytes)
system.tol2bus.pkt_count_system.cpu08.dcache.mem_side::system.l2.cpu_side       186601                       # Packet count per connected master and slave (bytes)
system.tol2bus.pkt_count_system.cpu09.icache.mem_side::system.l2.cpu_side         1001                       # Packet count per connected master and slave (bytes)
system.tol2bus.pkt_count_system.cpu09.dcache.mem_side::system.l2.cpu_side       156670                       # Packet count per connected master and slave (bytes)
system.tol2bus.pkt_count_system.cpu10.icache.mem_side::system.l2.cpu_side          853                       # Packet count per connected master and slave (bytes)
system.tol2bus.pkt_count_system.cpu10.dcache.mem_side::system.l2.cpu_side       161939                       # Packet count per connected master and slave (bytes)
system.tol2bus.pkt_count_system.cpu11.icache.mem_side::system.l2.cpu_side         1002                       # Packet count per connected master and slave (bytes)
system.tol2bus.pkt_count_system.cpu11.dcache.mem_side::system.l2.cpu_side       156264                       # Packet count per connected master and slave (bytes)
system.tol2bus.pkt_count_system.cpu12.icache.mem_side::system.l2.cpu_side         1096                       # Packet count per connected master and slave (bytes)
system.tol2bus.pkt_count_system.cpu12.dcache.mem_side::system.l2.cpu_side       173959                       # Packet count per connected master and slave (bytes)
system.tol2bus.pkt_count_system.cpu13.icache.mem_side::system.l2.cpu_side          851                       # Packet count per connected master and slave (bytes)
system.tol2bus.pkt_count_system.cpu13.dcache.mem_side::system.l2.cpu_side       155927                       # Packet count per connected master and slave (bytes)
system.tol2bus.pkt_count_system.cpu14.icache.mem_side::system.l2.cpu_side         1014                       # Packet count per connected master and slave (bytes)
system.tol2bus.pkt_count_system.cpu14.dcache.mem_side::system.l2.cpu_side       164100                       # Packet count per connected master and slave (bytes)
system.tol2bus.pkt_count_system.cpu15.icache.mem_side::system.l2.cpu_side         1007                       # Packet count per connected master and slave (bytes)
system.tol2bus.pkt_count_system.cpu15.dcache.mem_side::system.l2.cpu_side       162649                       # Packet count per connected master and slave (bytes)
system.tol2bus.pkt_count::total               2685146                       # Packet count per connected master and slave (bytes)
system.tol2bus.pkt_size_system.cpu00.icache.mem_side::system.l2.cpu_side       950656                       # Cumulative packet size per connected master and slave (bytes)
system.tol2bus.pkt_size_system.cpu00.dcache.mem_side::system.l2.cpu_side      8452096                       # Cumulative packet size per connected master and slave (bytes)
system.tol2bus.pkt_size_system.cpu01.icache.mem_side::system.l2.cpu_side        37248                       # Cumulative packet size per connected master and slave (bytes)
system.tol2bus.pkt_size_system.cpu01.dcache.mem_side::system.l2.cpu_side      6510912                       # Cumulative packet size per connected master and slave (bytes)
system.tol2bus.pkt_size_system.cpu02.icache.mem_side::system.l2.cpu_side        29888                       # Cumulative packet size per connected master and slave (bytes)
system.tol2bus.pkt_size_system.cpu02.dcache.mem_side::system.l2.cpu_side      6820160                       # Cumulative packet size per connected master and slave (bytes)
system.tol2bus.pkt_size_system.cpu03.icache.mem_side::system.l2.cpu_side        34816                       # Cumulative packet size per connected master and slave (bytes)
system.tol2bus.pkt_size_system.cpu03.dcache.mem_side::system.l2.cpu_side      6562240                       # Cumulative packet size per connected master and slave (bytes)
system.tol2bus.pkt_size_system.cpu04.icache.mem_side::system.l2.cpu_side        28736                       # Cumulative packet size per connected master and slave (bytes)
system.tol2bus.pkt_size_system.cpu04.dcache.mem_side::system.l2.cpu_side      7304064                       # Cumulative packet size per connected master and slave (bytes)
system.tol2bus.pkt_size_system.cpu05.icache.mem_side::system.l2.cpu_side        34816                       # Cumulative packet size per connected master and slave (bytes)
system.tol2bus.pkt_size_system.cpu05.dcache.mem_side::system.l2.cpu_side      6492352                       # Cumulative packet size per connected master and slave (bytes)
system.tol2bus.pkt_size_system.cpu06.icache.mem_side::system.l2.cpu_side        28736                       # Cumulative packet size per connected master and slave (bytes)
system.tol2bus.pkt_size_system.cpu06.dcache.mem_side::system.l2.cpu_side      6875456                       # Cumulative packet size per connected master and slave (bytes)
system.tol2bus.pkt_size_system.cpu07.icache.mem_side::system.l2.cpu_side        34944                       # Cumulative packet size per connected master and slave (bytes)
system.tol2bus.pkt_size_system.cpu07.dcache.mem_side::system.l2.cpu_side      6589056                       # Cumulative packet size per connected master and slave (bytes)
system.tol2bus.pkt_size_system.cpu08.icache.mem_side::system.l2.cpu_side        28672                       # Cumulative packet size per connected master and slave (bytes)
system.tol2bus.pkt_size_system.cpu08.dcache.mem_side::system.l2.cpu_side      7817600                       # Cumulative packet size per connected master and slave (bytes)
system.tol2bus.pkt_size_system.cpu09.icache.mem_side::system.l2.cpu_side        34752                       # Cumulative packet size per connected master and slave (bytes)
system.tol2bus.pkt_size_system.cpu09.dcache.mem_side::system.l2.cpu_side      6548224                       # Cumulative packet size per connected master and slave (bytes)
system.tol2bus.pkt_size_system.cpu10.icache.mem_side::system.l2.cpu_side        28800                       # Cumulative packet size per connected master and slave (bytes)
system.tol2bus.pkt_size_system.cpu10.dcache.mem_side::system.l2.cpu_side      6802048                       # Cumulative packet size per connected master and slave (bytes)
system.tol2bus.pkt_size_system.cpu11.icache.mem_side::system.l2.cpu_side        34816                       # Cumulative packet size per connected master and slave (bytes)
system.tol2bus.pkt_size_system.cpu11.dcache.mem_side::system.l2.cpu_side      6576768                       # Cumulative packet size per connected master and slave (bytes)
system.tol2bus.pkt_size_system.cpu12.icache.mem_side::system.l2.cpu_side        38464                       # Cumulative packet size per connected master and slave (bytes)
system.tol2bus.pkt_size_system.cpu12.dcache.mem_side::system.l2.cpu_side      7273920                       # Cumulative packet size per connected master and slave (bytes)
system.tol2bus.pkt_size_system.cpu13.icache.mem_side::system.l2.cpu_side        28736                       # Cumulative packet size per connected master and slave (bytes)
system.tol2bus.pkt_size_system.cpu13.dcache.mem_side::system.l2.cpu_side      6487808                       # Cumulative packet size per connected master and slave (bytes)
system.tol2bus.pkt_size_system.cpu14.icache.mem_side::system.l2.cpu_side        35200                       # Cumulative packet size per connected master and slave (bytes)
system.tol2bus.pkt_size_system.cpu14.dcache.mem_side::system.l2.cpu_side      6834240                       # Cumulative packet size per connected master and slave (bytes)
system.tol2bus.pkt_size_system.cpu15.icache.mem_side::system.l2.cpu_side        34944                       # Cumulative packet size per connected master and slave (bytes)
system.tol2bus.pkt_size_system.cpu15.dcache.mem_side::system.l2.cpu_side      6839808                       # Cumulative packet size per connected master and slave (bytes)
system.tol2bus.pkt_size::total              112230976                       # Cumulative packet size per connected master and slave (bytes)
system.tol2bus.snoops                           58668                       # Total snoops (count)
system.tol2bus.snoop_fanout::samples           955090                       # Request fanout histogram
system.tol2bus.snoop_fanout::mean            0.084739                       # Request fanout histogram
system.tol2bus.snoop_fanout::stdev           0.881297                       # Request fanout histogram
system.tol2bus.snoop_fanout::underflows             0      0.00%      0.00% # Request fanout histogram
system.tol2bus.snoop_fanout::0                 938514     98.26%     98.26% # Request fanout histogram
system.tol2bus.snoop_fanout::1                   6486      0.68%     98.94% # Request fanout histogram
system.tol2bus.snoop_fanout::2                   1543      0.16%     99.11% # Request fanout histogram
system.tol2bus.snoop_fanout::3                   1125      0.12%     99.22% # Request fanout histogram
system.tol2bus.snoop_fanout::4                    823      0.09%     99.31% # Request fanout histogram
system.tol2bus.snoop_fanout::5                    805      0.08%     99.39% # Request fanout histogram
system.tol2bus.snoop_fanout::6                    747      0.08%     99.47% # Request fanout histogram
system.tol2bus.snoop_fanout::7                    642      0.07%     99.54% # Request fanout histogram
system.tol2bus.snoop_fanout::8                    574      0.06%     99.60% # Request fanout histogram
system.tol2bus.snoop_fanout::9                    544      0.06%     99.66% # Request fanout histogram
system.tol2bus.snoop_fanout::10                   486      0.05%     99.71% # Request fanout histogram
system.tol2bus.snoop_fanout::11                   492      0.05%     99.76% # Request fanout histogram
system.tol2bus.snoop_fanout::12                   478      0.05%     99.81% # Request fanout histogram
system.tol2bus.snoop_fanout::13                   476      0.05%     99.86% # Request fanout histogram
system.tol2bus.snoop_fanout::14                   474      0.05%     99.91% # Request fanout histogram
system.tol2bus.snoop_fanout::15                   723      0.08%     99.98% # Request fanout histogram
system.tol2bus.snoop_fanout::16                   158      0.02%    100.00% # Request fanout histogram
system.tol2bus.snoop_fanout::17                     0      0.00%    100.00% # Request fanout histogram
system.tol2bus.snoop_fanout::18                     0      0.00%    100.00% # Request fanout histogram
system.tol2bus.snoop_fanout::19                     0      0.00%    100.00% # Request fanout histogram
system.tol2bus.snoop_fanout::20                     0      0.00%    100.00% # Request fanout histogram
system.tol2bus.snoop_fanout::21                     0      0.00%    100.00% # Request fanout histogram
system.tol2bus.snoop_fanout::22                     0      0.00%    100.00% # Request fanout histogram
system.tol2bus.snoop_fanout::23                     0      0.00%    100.00% # Request fanout histogram
system.tol2bus.snoop_fanout::24                     0      0.00%    100.00% # Request fanout histogram
system.tol2bus.snoop_fanout::25                     0      0.00%    100.00% # Request fanout histogram
system.tol2bus.snoop_fanout::26                     0      0.00%    100.00% # Request fanout histogram
system.tol2bus.snoop_fanout::27                     0      0.00%    100.00% # Request fanout histogram
system.tol2bus.snoop_fanout::28                     0      0.00%    100.00% # Request fanout histogram
system.tol2bus.snoop_fanout::29                     0      0.00%    100.00% # Request fanout histogram
system.tol2bus.snoop_fanout::30                     0      0.00%    100.00% # Request fanout histogram
system.tol2bus.snoop_fanout::31                     0      0.00%    100.00% # Request fanout histogram
system.tol2bus.snoop_fanout::32                     0      0.00%    100.00% # Request fanout histogram
system.tol2bus.snoop_fanout::overflows              0      0.00%    100.00% # Request fanout histogram
system.tol2bus.snoop_fanout::min_value              0                       # Request fanout histogram
system.tol2bus.snoop_fanout::max_value             16                       # Request fanout histogram
system.tol2bus.snoop_fanout::total             955090                       # Request fanout histogram
system.tol2bus.reqLayer0.occupancy         4084384740                       # Layer occupancy (ticks)
system.tol2bus.reqLayer0.utilization             40.6                       # Layer utilization (%)
system.tol2bus.respLayer0.occupancy          27123233                       # Layer occupancy (ticks)
system.tol2bus.respLayer0.utilization             0.3                       # Layer utilization (%)
system.tol2bus.respLayer1.occupancy         242596777                       # Layer occupancy (ticks)
system.tol2bus.respLayer1.utilization             2.4                       # Layer utilization (%)
system.tol2bus.respLayer2.occupancy           1704212                       # Layer occupancy (ticks)
system.tol2bus.respLayer2.utilization             0.0                       # Layer utilization (%)
system.tol2bus.respLayer3.occupancy         181633027                       # Layer occupancy (ticks)
system.tol2bus.respLayer3.utilization             1.8                       # Layer utilization (%)
system.tol2bus.respLayer4.occupancy           1488222                       # Layer occupancy (ticks)
system.tol2bus.respLayer4.utilization             0.0                       # Layer utilization (%)
system.tol2bus.respLayer5.occupancy         188979403                       # Layer occupancy (ticks)
system.tol2bus.respLayer5.utilization             1.9                       # Layer utilization (%)
system.tol2bus.respLayer6.occupancy           1623008                       # Layer occupancy (ticks)
system.tol2bus.respLayer6.utilization             0.0                       # Layer utilization (%)
system.tol2bus.respLayer7.occupancy         182209182                       # Layer occupancy (ticks)
system.tol2bus.respLayer7.utilization             1.8                       # Layer utilization (%)
system.tol2bus.respLayer8.occupancy           1424453                       # Layer occupancy (ticks)
system.tol2bus.respLayer8.utilization             0.0                       # Layer utilization (%)
system.tol2bus.respLayer9.occupancy         203117285                       # Layer occupancy (ticks)
system.tol2bus.respLayer9.utilization             2.0                       # Layer utilization (%)
system.tol2bus.respLayer10.occupancy          1628391                       # Layer occupancy (ticks)
system.tol2bus.respLayer10.utilization            0.0                       # Layer utilization (%)
system.tol2bus.respLayer11.occupancy        182521410                       # Layer occupancy (ticks)
system.tol2bus.respLayer11.utilization            1.8                       # Layer utilization (%)
system.tol2bus.respLayer12.occupancy          1429386                       # Layer occupancy (ticks)
system.tol2bus.respLayer12.utilization            0.0                       # Layer utilization (%)
system.tol2bus.respLayer13.occupancy        191449056                       # Layer occupancy (ticks)
system.tol2bus.respLayer13.utilization            1.9                       # Layer utilization (%)
system.tol2bus.respLayer14.occupancy          1619515                       # Layer occupancy (ticks)
system.tol2bus.respLayer14.utilization            0.0                       # Layer utilization (%)
system.tol2bus.respLayer15.occupancy        184228108                       # Layer occupancy (ticks)
system.tol2bus.respLayer15.utilization            1.8                       # Layer utilization (%)
system.tol2bus.respLayer16.occupancy          1421264                       # Layer occupancy (ticks)
system.tol2bus.respLayer16.utilization            0.0                       # Layer utilization (%)
system.tol2bus.respLayer17.occupancy        218549948                       # Layer occupancy (ticks)
system.tol2bus.respLayer17.utilization            2.2                       # Layer utilization (%)
system.tol2bus.respLayer18.occupancy          1616983                       # Layer occupancy (ticks)
system.tol2bus.respLayer18.utilization            0.0                       # Layer utilization (%)
system.tol2bus.respLayer19.occupancy        183344851                       # Layer occupancy (ticks)
system.tol2bus.respLayer19.utilization            1.8                       # Layer utilization (%)
system.tol2bus.respLayer20.occupancy          1427900                       # Layer occupancy (ticks)
system.tol2bus.respLayer20.utilization            0.0                       # Layer utilization (%)
system.tol2bus.respLayer21.occupancy        189668091                       # Layer occupancy (ticks)
system.tol2bus.respLayer21.utilization            1.9                       # Layer utilization (%)
system.tol2bus.respLayer22.occupancy          1607948                       # Layer occupancy (ticks)
system.tol2bus.respLayer22.utilization            0.0                       # Layer utilization (%)
system.tol2bus.respLayer23.occupancy        182779170                       # Layer occupancy (ticks)
system.tol2bus.respLayer23.utilization            1.8                       # Layer utilization (%)
system.tol2bus.respLayer24.occupancy          1748398                       # Layer occupancy (ticks)
system.tol2bus.respLayer24.utilization            0.0                       # Layer utilization (%)
system.tol2bus.respLayer25.occupancy        203992566                       # Layer occupancy (ticks)
system.tol2bus.respLayer25.utilization            2.0                       # Layer utilization (%)
system.tol2bus.respLayer26.occupancy          1419017                       # Layer occupancy (ticks)
system.tol2bus.respLayer26.utilization            0.0                       # Layer utilization (%)
system.tol2bus.respLayer27.occupancy        182743350                       # Layer occupancy (ticks)
system.tol2bus.respLayer27.utilization            1.8                       # Layer utilization (%)
system.tol2bus.respLayer28.occupancy          1638090                       # Layer occupancy (ticks)
system.tol2bus.respLayer28.utilization            0.0                       # Layer utilization (%)
system.tol2bus.respLayer29.occupancy        192519059                       # Layer occupancy (ticks)
system.tol2bus.respLayer29.utilization            1.9                       # Layer utilization (%)
system.tol2bus.respLayer30.occupancy          1621872                       # Layer occupancy (ticks)
system.tol2bus.respLayer30.utilization            0.0                       # Layer utilization (%)
system.tol2bus.respLayer31.occupancy        190383797                       # Layer occupancy (ticks)
system.tol2bus.respLayer31.utilization            1.9                       # Layer utilization (%)

---------- End Simulation Statistics   ----------
