
---------- Begin Simulation Statistics ----------
sim_seconds                                  0.001251                       # Number of seconds simulated
sim_ticks                                  1250942311                       # Number of ticks simulated
final_tick                                 1250942311                       # Number of ticks from beginning of simulation (restored from checkpoints and never reset)
sim_freq                                 1000000000000                       # Frequency of simulated ticks
host_inst_rate                                 221767                       # Simulator instruction rate (inst/s)
host_op_rate                                   221766                       # Simulator op (including micro ops) rate (op/s)
host_tick_rate                              130409311                       # Simulator tick rate (ticks/s)
host_mem_usage                                 694700                       # Number of bytes of host memory used
host_seconds                                     9.59                       # Real time elapsed on the host
sim_insts                                     2127274                       # Number of instructions simulated
sim_ops                                       2127274                       # Number of ops (including micro ops) simulated
system.voltage_domain.voltage                       1                       # Voltage in Volts
system.clk_domain.clock                          1000                       # Clock period in ticks
system.mem_ctrls.bytes_read::cpu00.inst        122944                       # Number of bytes read from this memory
system.mem_ctrls.bytes_read::cpu00.data        378176                       # Number of bytes read from this memory
system.mem_ctrls.bytes_read::cpu01.inst         11520                       # Number of bytes read from this memory
system.mem_ctrls.bytes_read::cpu01.data          8064                       # Number of bytes read from this memory
system.mem_ctrls.bytes_read::cpu02.inst          1536                       # Number of bytes read from this memory
system.mem_ctrls.bytes_read::cpu02.data          6784                       # Number of bytes read from this memory
system.mem_ctrls.bytes_read::cpu03.inst           512                       # Number of bytes read from this memory
system.mem_ctrls.bytes_read::cpu03.data          6592                       # Number of bytes read from this memory
system.mem_ctrls.bytes_read::cpu04.inst          1472                       # Number of bytes read from this memory
system.mem_ctrls.bytes_read::cpu04.data          5632                       # Number of bytes read from this memory
system.mem_ctrls.bytes_read::cpu05.inst           576                       # Number of bytes read from this memory
system.mem_ctrls.bytes_read::cpu05.data          5568                       # Number of bytes read from this memory
system.mem_ctrls.bytes_read::cpu06.inst          1152                       # Number of bytes read from this memory
system.mem_ctrls.bytes_read::cpu06.data          6592                       # Number of bytes read from this memory
system.mem_ctrls.bytes_read::cpu07.inst          4608                       # Number of bytes read from this memory
system.mem_ctrls.bytes_read::cpu07.data          5888                       # Number of bytes read from this memory
system.mem_ctrls.bytes_read::cpu08.inst          1600                       # Number of bytes read from this memory
system.mem_ctrls.bytes_read::cpu08.data          5632                       # Number of bytes read from this memory
system.mem_ctrls.bytes_read::cpu09.inst          1216                       # Number of bytes read from this memory
system.mem_ctrls.bytes_read::cpu09.data          6080                       # Number of bytes read from this memory
system.mem_ctrls.bytes_read::cpu10.inst          1856                       # Number of bytes read from this memory
system.mem_ctrls.bytes_read::cpu10.data          5504                       # Number of bytes read from this memory
system.mem_ctrls.bytes_read::cpu11.inst           448                       # Number of bytes read from this memory
system.mem_ctrls.bytes_read::cpu11.data          4864                       # Number of bytes read from this memory
system.mem_ctrls.bytes_read::cpu12.inst           192                       # Number of bytes read from this memory
system.mem_ctrls.bytes_read::cpu12.data          5312                       # Number of bytes read from this memory
system.mem_ctrls.bytes_read::cpu13.inst          2432                       # Number of bytes read from this memory
system.mem_ctrls.bytes_read::cpu13.data          6016                       # Number of bytes read from this memory
system.mem_ctrls.bytes_read::cpu14.inst          1344                       # Number of bytes read from this memory
system.mem_ctrls.bytes_read::cpu14.data          6464                       # Number of bytes read from this memory
system.mem_ctrls.bytes_read::cpu15.inst           768                       # Number of bytes read from this memory
system.mem_ctrls.bytes_read::cpu15.data          4608                       # Number of bytes read from this memory
system.mem_ctrls.bytes_read::total             621952                       # Number of bytes read from this memory
system.mem_ctrls.bytes_inst_read::cpu00.inst       122944                       # Number of instructions bytes read from this memory
system.mem_ctrls.bytes_inst_read::cpu01.inst        11520                       # Number of instructions bytes read from this memory
system.mem_ctrls.bytes_inst_read::cpu02.inst         1536                       # Number of instructions bytes read from this memory
system.mem_ctrls.bytes_inst_read::cpu03.inst          512                       # Number of instructions bytes read from this memory
system.mem_ctrls.bytes_inst_read::cpu04.inst         1472                       # Number of instructions bytes read from this memory
system.mem_ctrls.bytes_inst_read::cpu05.inst          576                       # Number of instructions bytes read from this memory
system.mem_ctrls.bytes_inst_read::cpu06.inst         1152                       # Number of instructions bytes read from this memory
system.mem_ctrls.bytes_inst_read::cpu07.inst         4608                       # Number of instructions bytes read from this memory
system.mem_ctrls.bytes_inst_read::cpu08.inst         1600                       # Number of instructions bytes read from this memory
system.mem_ctrls.bytes_inst_read::cpu09.inst         1216                       # Number of instructions bytes read from this memory
system.mem_ctrls.bytes_inst_read::cpu10.inst         1856                       # Number of instructions bytes read from this memory
system.mem_ctrls.bytes_inst_read::cpu11.inst          448                       # Number of instructions bytes read from this memory
system.mem_ctrls.bytes_inst_read::cpu12.inst          192                       # Number of instructions bytes read from this memory
system.mem_ctrls.bytes_inst_read::cpu13.inst         2432                       # Number of instructions bytes read from this memory
system.mem_ctrls.bytes_inst_read::cpu14.inst         1344                       # Number of instructions bytes read from this memory
system.mem_ctrls.bytes_inst_read::cpu15.inst          768                       # Number of instructions bytes read from this memory
system.mem_ctrls.bytes_inst_read::total        154176                       # Number of instructions bytes read from this memory
system.mem_ctrls.bytes_written::writebacks        80640                       # Number of bytes written to this memory
system.mem_ctrls.bytes_written::total           80640                       # Number of bytes written to this memory
system.mem_ctrls.num_reads::cpu00.inst           1921                       # Number of read requests responded to by this memory
system.mem_ctrls.num_reads::cpu00.data           5909                       # Number of read requests responded to by this memory
system.mem_ctrls.num_reads::cpu01.inst            180                       # Number of read requests responded to by this memory
system.mem_ctrls.num_reads::cpu01.data            126                       # Number of read requests responded to by this memory
system.mem_ctrls.num_reads::cpu02.inst             24                       # Number of read requests responded to by this memory
system.mem_ctrls.num_reads::cpu02.data            106                       # Number of read requests responded to by this memory
system.mem_ctrls.num_reads::cpu03.inst              8                       # Number of read requests responded to by this memory
system.mem_ctrls.num_reads::cpu03.data            103                       # Number of read requests responded to by this memory
system.mem_ctrls.num_reads::cpu04.inst             23                       # Number of read requests responded to by this memory
system.mem_ctrls.num_reads::cpu04.data             88                       # Number of read requests responded to by this memory
system.mem_ctrls.num_reads::cpu05.inst              9                       # Number of read requests responded to by this memory
system.mem_ctrls.num_reads::cpu05.data             87                       # Number of read requests responded to by this memory
system.mem_ctrls.num_reads::cpu06.inst             18                       # Number of read requests responded to by this memory
system.mem_ctrls.num_reads::cpu06.data            103                       # Number of read requests responded to by this memory
system.mem_ctrls.num_reads::cpu07.inst             72                       # Number of read requests responded to by this memory
system.mem_ctrls.num_reads::cpu07.data             92                       # Number of read requests responded to by this memory
system.mem_ctrls.num_reads::cpu08.inst             25                       # Number of read requests responded to by this memory
system.mem_ctrls.num_reads::cpu08.data             88                       # Number of read requests responded to by this memory
system.mem_ctrls.num_reads::cpu09.inst             19                       # Number of read requests responded to by this memory
system.mem_ctrls.num_reads::cpu09.data             95                       # Number of read requests responded to by this memory
system.mem_ctrls.num_reads::cpu10.inst             29                       # Number of read requests responded to by this memory
system.mem_ctrls.num_reads::cpu10.data             86                       # Number of read requests responded to by this memory
system.mem_ctrls.num_reads::cpu11.inst              7                       # Number of read requests responded to by this memory
system.mem_ctrls.num_reads::cpu11.data             76                       # Number of read requests responded to by this memory
system.mem_ctrls.num_reads::cpu12.inst              3                       # Number of read requests responded to by this memory
system.mem_ctrls.num_reads::cpu12.data             83                       # Number of read requests responded to by this memory
system.mem_ctrls.num_reads::cpu13.inst             38                       # Number of read requests responded to by this memory
system.mem_ctrls.num_reads::cpu13.data             94                       # Number of read requests responded to by this memory
system.mem_ctrls.num_reads::cpu14.inst             21                       # Number of read requests responded to by this memory
system.mem_ctrls.num_reads::cpu14.data            101                       # Number of read requests responded to by this memory
system.mem_ctrls.num_reads::cpu15.inst             12                       # Number of read requests responded to by this memory
system.mem_ctrls.num_reads::cpu15.data             72                       # Number of read requests responded to by this memory
system.mem_ctrls.num_reads::total                9718                       # Number of read requests responded to by this memory
system.mem_ctrls.num_writes::writebacks          1260                       # Number of write requests responded to by this memory
system.mem_ctrls.num_writes::total               1260                       # Number of write requests responded to by this memory
system.mem_ctrls.bw_read::cpu00.inst         98281111                       # Total read bandwidth from this memory (bytes/s)
system.mem_ctrls.bw_read::cpu00.data        302312902                       # Total read bandwidth from this memory (bytes/s)
system.mem_ctrls.bw_read::cpu01.inst          9209058                       # Total read bandwidth from this memory (bytes/s)
system.mem_ctrls.bw_read::cpu01.data          6446340                       # Total read bandwidth from this memory (bytes/s)
system.mem_ctrls.bw_read::cpu02.inst          1227874                       # Total read bandwidth from this memory (bytes/s)
system.mem_ctrls.bw_read::cpu02.data          5423112                       # Total read bandwidth from this memory (bytes/s)
system.mem_ctrls.bw_read::cpu03.inst           409291                       # Total read bandwidth from this memory (bytes/s)
system.mem_ctrls.bw_read::cpu03.data          5269627                       # Total read bandwidth from this memory (bytes/s)
system.mem_ctrls.bw_read::cpu04.inst          1176713                       # Total read bandwidth from this memory (bytes/s)
system.mem_ctrls.bw_read::cpu04.data          4502206                       # Total read bandwidth from this memory (bytes/s)
system.mem_ctrls.bw_read::cpu05.inst           460453                       # Total read bandwidth from this memory (bytes/s)
system.mem_ctrls.bw_read::cpu05.data          4451045                       # Total read bandwidth from this memory (bytes/s)
system.mem_ctrls.bw_read::cpu06.inst           920906                       # Total read bandwidth from this memory (bytes/s)
system.mem_ctrls.bw_read::cpu06.data          5269627                       # Total read bandwidth from this memory (bytes/s)
system.mem_ctrls.bw_read::cpu07.inst          3683623                       # Total read bandwidth from this memory (bytes/s)
system.mem_ctrls.bw_read::cpu07.data          4706852                       # Total read bandwidth from this memory (bytes/s)
system.mem_ctrls.bw_read::cpu08.inst          1279036                       # Total read bandwidth from this memory (bytes/s)
system.mem_ctrls.bw_read::cpu08.data          4502206                       # Total read bandwidth from this memory (bytes/s)
system.mem_ctrls.bw_read::cpu09.inst           972067                       # Total read bandwidth from this memory (bytes/s)
system.mem_ctrls.bw_read::cpu09.data          4860336                       # Total read bandwidth from this memory (bytes/s)
system.mem_ctrls.bw_read::cpu10.inst          1483682                       # Total read bandwidth from this memory (bytes/s)
system.mem_ctrls.bw_read::cpu10.data          4399883                       # Total read bandwidth from this memory (bytes/s)
system.mem_ctrls.bw_read::cpu11.inst           358130                       # Total read bandwidth from this memory (bytes/s)
system.mem_ctrls.bw_read::cpu11.data          3888269                       # Total read bandwidth from this memory (bytes/s)
system.mem_ctrls.bw_read::cpu12.inst           153484                       # Total read bandwidth from this memory (bytes/s)
system.mem_ctrls.bw_read::cpu12.data          4246399                       # Total read bandwidth from this memory (bytes/s)
system.mem_ctrls.bw_read::cpu13.inst          1944134                       # Total read bandwidth from this memory (bytes/s)
system.mem_ctrls.bw_read::cpu13.data          4809175                       # Total read bandwidth from this memory (bytes/s)
system.mem_ctrls.bw_read::cpu14.inst          1074390                       # Total read bandwidth from this memory (bytes/s)
system.mem_ctrls.bw_read::cpu14.data          5167305                       # Total read bandwidth from this memory (bytes/s)
system.mem_ctrls.bw_read::cpu15.inst           613937                       # Total read bandwidth from this memory (bytes/s)
system.mem_ctrls.bw_read::cpu15.data          3683623                       # Total read bandwidth from this memory (bytes/s)
system.mem_ctrls.bw_read::total             497186796                       # Total read bandwidth from this memory (bytes/s)
system.mem_ctrls.bw_inst_read::cpu00.inst     98281111                       # Instruction read bandwidth from this memory (bytes/s)
system.mem_ctrls.bw_inst_read::cpu01.inst      9209058                       # Instruction read bandwidth from this memory (bytes/s)
system.mem_ctrls.bw_inst_read::cpu02.inst      1227874                       # Instruction read bandwidth from this memory (bytes/s)
system.mem_ctrls.bw_inst_read::cpu03.inst       409291                       # Instruction read bandwidth from this memory (bytes/s)
system.mem_ctrls.bw_inst_read::cpu04.inst      1176713                       # Instruction read bandwidth from this memory (bytes/s)
system.mem_ctrls.bw_inst_read::cpu05.inst       460453                       # Instruction read bandwidth from this memory (bytes/s)
system.mem_ctrls.bw_inst_read::cpu06.inst       920906                       # Instruction read bandwidth from this memory (bytes/s)
system.mem_ctrls.bw_inst_read::cpu07.inst      3683623                       # Instruction read bandwidth from this memory (bytes/s)
system.mem_ctrls.bw_inst_read::cpu08.inst      1279036                       # Instruction read bandwidth from this memory (bytes/s)
system.mem_ctrls.bw_inst_read::cpu09.inst       972067                       # Instruction read bandwidth from this memory (bytes/s)
system.mem_ctrls.bw_inst_read::cpu10.inst      1483682                       # Instruction read bandwidth from this memory (bytes/s)
system.mem_ctrls.bw_inst_read::cpu11.inst       358130                       # Instruction read bandwidth from this memory (bytes/s)
system.mem_ctrls.bw_inst_read::cpu12.inst       153484                       # Instruction read bandwidth from this memory (bytes/s)
system.mem_ctrls.bw_inst_read::cpu13.inst      1944134                       # Instruction read bandwidth from this memory (bytes/s)
system.mem_ctrls.bw_inst_read::cpu14.inst      1074390                       # Instruction read bandwidth from this memory (bytes/s)
system.mem_ctrls.bw_inst_read::cpu15.inst       613937                       # Instruction read bandwidth from this memory (bytes/s)
system.mem_ctrls.bw_inst_read::total        123247890                       # Instruction read bandwidth from this memory (bytes/s)
system.mem_ctrls.bw_write::writebacks        64463404                       # Write bandwidth from this memory (bytes/s)
system.mem_ctrls.bw_write::total             64463404                       # Write bandwidth from this memory (bytes/s)
system.mem_ctrls.bw_total::writebacks        64463404                       # Total bandwidth to/from this memory (bytes/s)
system.mem_ctrls.bw_total::cpu00.inst        98281111                       # Total bandwidth to/from this memory (bytes/s)
system.mem_ctrls.bw_total::cpu00.data       302312902                       # Total bandwidth to/from this memory (bytes/s)
system.mem_ctrls.bw_total::cpu01.inst         9209058                       # Total bandwidth to/from this memory (bytes/s)
system.mem_ctrls.bw_total::cpu01.data         6446340                       # Total bandwidth to/from this memory (bytes/s)
system.mem_ctrls.bw_total::cpu02.inst         1227874                       # Total bandwidth to/from this memory (bytes/s)
system.mem_ctrls.bw_total::cpu02.data         5423112                       # Total bandwidth to/from this memory (bytes/s)
system.mem_ctrls.bw_total::cpu03.inst          409291                       # Total bandwidth to/from this memory (bytes/s)
system.mem_ctrls.bw_total::cpu03.data         5269627                       # Total bandwidth to/from this memory (bytes/s)
system.mem_ctrls.bw_total::cpu04.inst         1176713                       # Total bandwidth to/from this memory (bytes/s)
system.mem_ctrls.bw_total::cpu04.data         4502206                       # Total bandwidth to/from this memory (bytes/s)
system.mem_ctrls.bw_total::cpu05.inst          460453                       # Total bandwidth to/from this memory (bytes/s)
system.mem_ctrls.bw_total::cpu05.data         4451045                       # Total bandwidth to/from this memory (bytes/s)
system.mem_ctrls.bw_total::cpu06.inst          920906                       # Total bandwidth to/from this memory (bytes/s)
system.mem_ctrls.bw_total::cpu06.data         5269627                       # Total bandwidth to/from this memory (bytes/s)
system.mem_ctrls.bw_total::cpu07.inst         3683623                       # Total bandwidth to/from this memory (bytes/s)
system.mem_ctrls.bw_total::cpu07.data         4706852                       # Total bandwidth to/from this memory (bytes/s)
system.mem_ctrls.bw_total::cpu08.inst         1279036                       # Total bandwidth to/from this memory (bytes/s)
system.mem_ctrls.bw_total::cpu08.data         4502206                       # Total bandwidth to/from this memory (bytes/s)
system.mem_ctrls.bw_total::cpu09.inst          972067                       # Total bandwidth to/from this memory (bytes/s)
system.mem_ctrls.bw_total::cpu09.data         4860336                       # Total bandwidth to/from this memory (bytes/s)
system.mem_ctrls.bw_total::cpu10.inst         1483682                       # Total bandwidth to/from this memory (bytes/s)
system.mem_ctrls.bw_total::cpu10.data         4399883                       # Total bandwidth to/from this memory (bytes/s)
system.mem_ctrls.bw_total::cpu11.inst          358130                       # Total bandwidth to/from this memory (bytes/s)
system.mem_ctrls.bw_total::cpu11.data         3888269                       # Total bandwidth to/from this memory (bytes/s)
system.mem_ctrls.bw_total::cpu12.inst          153484                       # Total bandwidth to/from this memory (bytes/s)
system.mem_ctrls.bw_total::cpu12.data         4246399                       # Total bandwidth to/from this memory (bytes/s)
system.mem_ctrls.bw_total::cpu13.inst         1944134                       # Total bandwidth to/from this memory (bytes/s)
system.mem_ctrls.bw_total::cpu13.data         4809175                       # Total bandwidth to/from this memory (bytes/s)
system.mem_ctrls.bw_total::cpu14.inst         1074390                       # Total bandwidth to/from this memory (bytes/s)
system.mem_ctrls.bw_total::cpu14.data         5167305                       # Total bandwidth to/from this memory (bytes/s)
system.mem_ctrls.bw_total::cpu15.inst          613937                       # Total bandwidth to/from this memory (bytes/s)
system.mem_ctrls.bw_total::cpu15.data         3683623                       # Total bandwidth to/from this memory (bytes/s)
system.mem_ctrls.bw_total::total            561650201                       # Total bandwidth to/from this memory (bytes/s)
system.cpu00.branchPred.lookups                132438                       # Number of BP lookups
system.cpu00.branchPred.condPredicted           73769                       # Number of conditional branches predicted
system.cpu00.branchPred.condIncorrect            5668                       # Number of conditional branches incorrect
system.cpu00.branchPred.BTBLookups              87848                       # Number of BTB lookups
system.cpu00.branchPred.BTBHits                 66345                       # Number of BTB hits
system.cpu00.branchPred.BTBCorrect                  0                       # Number of correct BTB predictions (this stat may not work properly.
system.cpu00.branchPred.BTBHitPct           75.522493                       # BTB Hit Percentage
system.cpu00.branchPred.usedRAS                 26406                       # Number of times the RAS was used to get a target.
system.cpu00.branchPred.RASInCorrect               88                       # Number of incorrect RAS predictions.
system.cpu00.branchPred.indirectLookups          3668                       # Number of indirect predictor lookups.
system.cpu00.branchPred.indirectHits             2896                       # Number of indirect target hits.
system.cpu00.branchPred.indirectMisses            772                       # Number of indirect misses.
system.cpu00.branchPredindirectMispredicted          258                       # Number of mispredicted indirect branches.
system.cpu_voltage_domain.voltage                   1                       # Voltage in Volts
system.cpu_clk_domain.clock                      1159                       # Clock period in ticks
system.cpu00.dtb.fetch_hits                         0                       # ITB hits
system.cpu00.dtb.fetch_misses                       0                       # ITB misses
system.cpu00.dtb.fetch_acv                          0                       # ITB acv
system.cpu00.dtb.fetch_accesses                     0                       # ITB accesses
system.cpu00.dtb.read_hits                     181942                       # DTB read hits
system.cpu00.dtb.read_misses                      612                       # DTB read misses
system.cpu00.dtb.read_acv                           0                       # DTB read access violations
system.cpu00.dtb.read_accesses                 182554                       # DTB read accesses
system.cpu00.dtb.write_hits                    127814                       # DTB write hits
system.cpu00.dtb.write_misses                    1041                       # DTB write misses
system.cpu00.dtb.write_acv                          0                       # DTB write access violations
system.cpu00.dtb.write_accesses                128855                       # DTB write accesses
system.cpu00.dtb.data_hits                     309756                       # DTB hits
system.cpu00.dtb.data_misses                     1653                       # DTB misses
system.cpu00.dtb.data_acv                           0                       # DTB access violations
system.cpu00.dtb.data_accesses                 311409                       # DTB accesses
system.cpu00.itb.fetch_hits                    149072                       # ITB hits
system.cpu00.itb.fetch_misses                     159                       # ITB misses
system.cpu00.itb.fetch_acv                          0                       # ITB acv
system.cpu00.itb.fetch_accesses                149231                       # ITB accesses
system.cpu00.itb.read_hits                          0                       # DTB read hits
system.cpu00.itb.read_misses                        0                       # DTB read misses
system.cpu00.itb.read_acv                           0                       # DTB read access violations
system.cpu00.itb.read_accesses                      0                       # DTB read accesses
system.cpu00.itb.write_hits                         0                       # DTB write hits
system.cpu00.itb.write_misses                       0                       # DTB write misses
system.cpu00.itb.write_acv                          0                       # DTB write access violations
system.cpu00.itb.write_accesses                     0                       # DTB write accesses
system.cpu00.itb.data_hits                          0                       # DTB hits
system.cpu00.itb.data_misses                        0                       # DTB misses
system.cpu00.itb.data_acv                           0                       # DTB access violations
system.cpu00.itb.data_accesses                      0                       # DTB accesses
system.cpu00.workload.num_syscalls               1930                       # Number of system calls
system.cpu00.numCycles                        1019849                       # number of cpu cycles simulated
system.cpu00.numWorkItemsStarted                    0                       # number of work items this cpu started
system.cpu00.numWorkItemsCompleted                  0                       # number of work items this cpu completed
system.cpu00.fetch.icacheStallCycles            77587                       # Number of cycles fetch is stalled on an Icache miss
system.cpu00.fetch.Insts                      1189466                       # Number of instructions fetch has processed
system.cpu00.fetch.Branches                    132438                       # Number of branches that fetch encountered
system.cpu00.fetch.predictedBranches            95647                       # Number of branches that fetch has predicted taken
system.cpu00.fetch.Cycles                      723308                       # Number of cycles fetch has run and was not squashing or blocked
system.cpu00.fetch.SquashCycles                 12708                       # Number of cycles fetch has spent squashing
system.cpu00.fetch.MiscStallCycles                685                       # Number of cycles fetch has spent waiting on interrupts, or bad addresses, or out of MSHRs
system.cpu00.fetch.PendingTrapStallCycles         6128                       # Number of stall cycles due to pending traps
system.cpu00.fetch.IcacheWaitRetryStallCycles          801                       # Number of stall cycles due to full MSHR
system.cpu00.fetch.CacheLines                  149072                       # Number of cache lines fetched
system.cpu00.fetch.IcacheSquashes                2609                       # Number of outstanding Icache misses that were squashed
system.cpu00.fetch.rateDist::samples           814863                       # Number of instructions fetched each cycle (Total)
system.cpu00.fetch.rateDist::mean            1.459713                       # Number of instructions fetched each cycle (Total)
system.cpu00.fetch.rateDist::stdev           2.725196                       # Number of instructions fetched each cycle (Total)
system.cpu00.fetch.rateDist::underflows             0      0.00%      0.00% # Number of instructions fetched each cycle (Total)
system.cpu00.fetch.rateDist::0                 597152     73.28%     73.28% # Number of instructions fetched each cycle (Total)
system.cpu00.fetch.rateDist::1                  16286      2.00%     75.28% # Number of instructions fetched each cycle (Total)
system.cpu00.fetch.rateDist::2                  17558      2.15%     77.44% # Number of instructions fetched each cycle (Total)
system.cpu00.fetch.rateDist::3                  16958      2.08%     79.52% # Number of instructions fetched each cycle (Total)
system.cpu00.fetch.rateDist::4                  38031      4.67%     84.18% # Number of instructions fetched each cycle (Total)
system.cpu00.fetch.rateDist::5                  15633      1.92%     86.10% # Number of instructions fetched each cycle (Total)
system.cpu00.fetch.rateDist::6                  18876      2.32%     88.42% # Number of instructions fetched each cycle (Total)
system.cpu00.fetch.rateDist::7                  11307      1.39%     89.81% # Number of instructions fetched each cycle (Total)
system.cpu00.fetch.rateDist::8                  83062     10.19%    100.00% # Number of instructions fetched each cycle (Total)
system.cpu00.fetch.rateDist::overflows              0      0.00%    100.00% # Number of instructions fetched each cycle (Total)
system.cpu00.fetch.rateDist::min_value              0                       # Number of instructions fetched each cycle (Total)
system.cpu00.fetch.rateDist::max_value              8                       # Number of instructions fetched each cycle (Total)
system.cpu00.fetch.rateDist::total             814863                       # Number of instructions fetched each cycle (Total)
system.cpu00.fetch.branchRate                0.129860                       # Number of branch fetches per cycle
system.cpu00.fetch.rate                      1.166316                       # Number of inst fetches per cycle
system.cpu00.decode.IdleCycles                  86403                       # Number of cycles decode is idle
system.cpu00.decode.BlockedCycles              561471                       # Number of cycles decode is blocked
system.cpu00.decode.RunCycles                  129021                       # Number of cycles decode is running
system.cpu00.decode.UnblockCycles               33349                       # Number of cycles decode is unblocking
system.cpu00.decode.SquashCycles                 4619                       # Number of cycles decode is squashing
system.cpu00.decode.BranchResolved              26429                       # Number of times decode resolved a branch
system.cpu00.decode.BranchMispred                1780                       # Number of times decode detected a branch misprediction
system.cpu00.decode.DecodedInsts              1123999                       # Number of instructions handled by decode
system.cpu00.decode.SquashedInsts                7262                       # Number of squashed instructions handled by decode
system.cpu00.rename.SquashCycles                 4619                       # Number of cycles rename is squashing
system.cpu00.rename.IdleCycles                 102269                       # Number of cycles rename is idle
system.cpu00.rename.BlockCycles                 89112                       # Number of cycles rename is blocking
system.cpu00.rename.serializeStallCycles       219183                       # count of cycles rename stalled for serializing inst
system.cpu00.rename.RunCycles                  146611                       # Number of cycles rename is running
system.cpu00.rename.UnblockCycles              253069                       # Number of cycles rename is unblocking
system.cpu00.rename.RenamedInsts              1104896                       # Number of instructions processed by rename
system.cpu00.rename.ROBFullEvents                2978                       # Number of times rename has blocked due to ROB full
system.cpu00.rename.IQFullEvents                22785                       # Number of times rename has blocked due to IQ full
system.cpu00.rename.LQFullEvents                 2073                       # Number of times rename has blocked due to LQ full
system.cpu00.rename.SQFullEvents               217827                       # Number of times rename has blocked due to SQ full
system.cpu00.rename.RenamedOperands            757498                       # Number of destination operands rename has renamed
system.cpu00.rename.RenameLookups             1368718                       # Number of register rename lookups that rename has made
system.cpu00.rename.int_rename_lookups        1210565                       # Number of integer rename lookups
system.cpu00.rename.fp_rename_lookups          155866                       # Number of floating rename lookups
system.cpu00.rename.CommittedMaps              668743                       # Number of HB maps that are committed
system.cpu00.rename.UndoneMaps                  88755                       # Number of HB maps that are undone due to squashing
system.cpu00.rename.serializingInsts             4041                       # count of serializing insts renamed
system.cpu00.rename.tempSerializingInsts         1663                       # count of temporary serializing insts renamed
system.cpu00.rename.skidInsts                  149431                       # count of insts added to the skid buffer
system.cpu00.memDep0.insertedLoads             179423                       # Number of loads inserted to the mem dependence unit.
system.cpu00.memDep0.insertedStores            135420                       # Number of stores inserted to the mem dependence unit.
system.cpu00.memDep0.conflictingLoads           32022                       # Number of conflicting loads.
system.cpu00.memDep0.conflictingStores          12249                       # Number of conflicting stores.
system.cpu00.iq.iqInstsAdded                   968270                       # Number of instructions added to the IQ (excludes non-spec)
system.cpu00.iq.iqNonSpecInstsAdded              2748                       # Number of non-speculative instructions added to the IQ
system.cpu00.iq.iqInstsIssued                  952582                       # Number of instructions issued
system.cpu00.iq.iqSquashedInstsIssued            1719                       # Number of squashed instructions issued
system.cpu00.iq.iqSquashedInstsExamined        101257                       # Number of squashed instructions iterated over during squash; mainly for profiling
system.cpu00.iq.iqSquashedOperandsExamined        51666                       # Number of squashed operands that are examined and possibly removed from graph
system.cpu00.iq.iqSquashedNonSpecRemoved          379                       # Number of squashed non-spec instructions that were removed
system.cpu00.iq.issued_per_cycle::samples       814863                       # Number of insts issued each cycle
system.cpu00.iq.issued_per_cycle::mean       1.169009                       # Number of insts issued each cycle
system.cpu00.iq.issued_per_cycle::stdev      1.936274                       # Number of insts issued each cycle
system.cpu00.iq.issued_per_cycle::underflows            0      0.00%      0.00% # Number of insts issued each cycle
system.cpu00.iq.issued_per_cycle::0            516743     63.41%     63.41% # Number of insts issued each cycle
system.cpu00.iq.issued_per_cycle::1             73734      9.05%     72.46% # Number of insts issued each cycle
system.cpu00.iq.issued_per_cycle::2             60818      7.46%     79.93% # Number of insts issued each cycle
system.cpu00.iq.issued_per_cycle::3             45222      5.55%     85.48% # Number of insts issued each cycle
system.cpu00.iq.issued_per_cycle::4             43684      5.36%     90.84% # Number of insts issued each cycle
system.cpu00.iq.issued_per_cycle::5             28549      3.50%     94.34% # Number of insts issued each cycle
system.cpu00.iq.issued_per_cycle::6             26651      3.27%     97.61% # Number of insts issued each cycle
system.cpu00.iq.issued_per_cycle::7             11537      1.42%     99.03% # Number of insts issued each cycle
system.cpu00.iq.issued_per_cycle::8              7925      0.97%    100.00% # Number of insts issued each cycle
system.cpu00.iq.issued_per_cycle::overflows            0      0.00%    100.00% # Number of insts issued each cycle
system.cpu00.iq.issued_per_cycle::min_value            0                       # Number of insts issued each cycle
system.cpu00.iq.issued_per_cycle::max_value            8                       # Number of insts issued each cycle
system.cpu00.iq.issued_per_cycle::total        814863                       # Number of insts issued each cycle
system.cpu00.iq.fu_full::No_OpClass                 0      0.00%      0.00% # attempts to use FU when none available
system.cpu00.iq.fu_full::IntAlu                  5011     16.04%     16.04% # attempts to use FU when none available
system.cpu00.iq.fu_full::IntMult                 4097     13.12%     29.16% # attempts to use FU when none available
system.cpu00.iq.fu_full::IntDiv                     0      0.00%     29.16% # attempts to use FU when none available
system.cpu00.iq.fu_full::FloatAdd                  76      0.24%     29.41% # attempts to use FU when none available
system.cpu00.iq.fu_full::FloatCmp                   0      0.00%     29.41% # attempts to use FU when none available
system.cpu00.iq.fu_full::FloatCvt                   0      0.00%     29.41% # attempts to use FU when none available
system.cpu00.iq.fu_full::FloatMult               5932     18.99%     48.40% # attempts to use FU when none available
system.cpu00.iq.fu_full::FloatDiv                   0      0.00%     48.40% # attempts to use FU when none available
system.cpu00.iq.fu_full::FloatSqrt                  0      0.00%     48.40% # attempts to use FU when none available
system.cpu00.iq.fu_full::SimdAdd                    0      0.00%     48.40% # attempts to use FU when none available
system.cpu00.iq.fu_full::SimdAddAcc                 0      0.00%     48.40% # attempts to use FU when none available
system.cpu00.iq.fu_full::SimdAlu                    0      0.00%     48.40% # attempts to use FU when none available
system.cpu00.iq.fu_full::SimdCmp                    0      0.00%     48.40% # attempts to use FU when none available
system.cpu00.iq.fu_full::SimdCvt                    0      0.00%     48.40% # attempts to use FU when none available
system.cpu00.iq.fu_full::SimdMisc                   0      0.00%     48.40% # attempts to use FU when none available
system.cpu00.iq.fu_full::SimdMult                   0      0.00%     48.40% # attempts to use FU when none available
system.cpu00.iq.fu_full::SimdMultAcc                0      0.00%     48.40% # attempts to use FU when none available
system.cpu00.iq.fu_full::SimdShift                  0      0.00%     48.40% # attempts to use FU when none available
system.cpu00.iq.fu_full::SimdShiftAcc               0      0.00%     48.40% # attempts to use FU when none available
system.cpu00.iq.fu_full::SimdSqrt                   0      0.00%     48.40% # attempts to use FU when none available
system.cpu00.iq.fu_full::SimdFloatAdd               0      0.00%     48.40% # attempts to use FU when none available
system.cpu00.iq.fu_full::SimdFloatAlu               0      0.00%     48.40% # attempts to use FU when none available
system.cpu00.iq.fu_full::SimdFloatCmp               0      0.00%     48.40% # attempts to use FU when none available
system.cpu00.iq.fu_full::SimdFloatCvt               0      0.00%     48.40% # attempts to use FU when none available
system.cpu00.iq.fu_full::SimdFloatDiv               0      0.00%     48.40% # attempts to use FU when none available
system.cpu00.iq.fu_full::SimdFloatMisc              0      0.00%     48.40% # attempts to use FU when none available
system.cpu00.iq.fu_full::SimdFloatMult              0      0.00%     48.40% # attempts to use FU when none available
system.cpu00.iq.fu_full::SimdFloatMultAcc            0      0.00%     48.40% # attempts to use FU when none available
system.cpu00.iq.fu_full::SimdFloatSqrt              0      0.00%     48.40% # attempts to use FU when none available
system.cpu00.iq.fu_full::MemRead                 9837     31.50%     79.90% # attempts to use FU when none available
system.cpu00.iq.fu_full::MemWrite                6278     20.10%    100.00% # attempts to use FU when none available
system.cpu00.iq.fu_full::IprAccess                  0      0.00%    100.00% # attempts to use FU when none available
system.cpu00.iq.fu_full::InstPrefetch               0      0.00%    100.00% # attempts to use FU when none available
system.cpu00.iq.FU_type_0::No_OpClass               0      0.00%      0.00% # Type of FU issued
system.cpu00.iq.FU_type_0::IntAlu              550745     57.82%     57.82% # Type of FU issued
system.cpu00.iq.FU_type_0::IntMult              12789      1.34%     59.16% # Type of FU issued
system.cpu00.iq.FU_type_0::IntDiv                   0      0.00%     59.16% # Type of FU issued
system.cpu00.iq.FU_type_0::FloatAdd             35713      3.75%     62.91% # Type of FU issued
system.cpu00.iq.FU_type_0::FloatCmp                 8      0.00%     62.91% # Type of FU issued
system.cpu00.iq.FU_type_0::FloatCvt                 0      0.00%     62.91% # Type of FU issued
system.cpu00.iq.FU_type_0::FloatMult            37106      3.90%     66.80% # Type of FU issued
system.cpu00.iq.FU_type_0::FloatDiv                16      0.00%     66.81% # Type of FU issued
system.cpu00.iq.FU_type_0::FloatSqrt                0      0.00%     66.81% # Type of FU issued
system.cpu00.iq.FU_type_0::SimdAdd                  0      0.00%     66.81% # Type of FU issued
system.cpu00.iq.FU_type_0::SimdAddAcc               0      0.00%     66.81% # Type of FU issued
system.cpu00.iq.FU_type_0::SimdAlu                  0      0.00%     66.81% # Type of FU issued
system.cpu00.iq.FU_type_0::SimdCmp                  0      0.00%     66.81% # Type of FU issued
system.cpu00.iq.FU_type_0::SimdCvt                  0      0.00%     66.81% # Type of FU issued
system.cpu00.iq.FU_type_0::SimdMisc                 0      0.00%     66.81% # Type of FU issued
system.cpu00.iq.FU_type_0::SimdMult                 0      0.00%     66.81% # Type of FU issued
system.cpu00.iq.FU_type_0::SimdMultAcc              0      0.00%     66.81% # Type of FU issued
system.cpu00.iq.FU_type_0::SimdShift                0      0.00%     66.81% # Type of FU issued
system.cpu00.iq.FU_type_0::SimdShiftAcc             0      0.00%     66.81% # Type of FU issued
system.cpu00.iq.FU_type_0::SimdSqrt                 0      0.00%     66.81% # Type of FU issued
system.cpu00.iq.FU_type_0::SimdFloatAdd             0      0.00%     66.81% # Type of FU issued
system.cpu00.iq.FU_type_0::SimdFloatAlu             0      0.00%     66.81% # Type of FU issued
system.cpu00.iq.FU_type_0::SimdFloatCmp             0      0.00%     66.81% # Type of FU issued
system.cpu00.iq.FU_type_0::SimdFloatCvt             0      0.00%     66.81% # Type of FU issued
system.cpu00.iq.FU_type_0::SimdFloatDiv             0      0.00%     66.81% # Type of FU issued
system.cpu00.iq.FU_type_0::SimdFloatMisc            0      0.00%     66.81% # Type of FU issued
system.cpu00.iq.FU_type_0::SimdFloatMult            0      0.00%     66.81% # Type of FU issued
system.cpu00.iq.FU_type_0::SimdFloatMultAcc            0      0.00%     66.81% # Type of FU issued
system.cpu00.iq.FU_type_0::SimdFloatSqrt            0      0.00%     66.81% # Type of FU issued
system.cpu00.iq.FU_type_0::MemRead             185773     19.50%     86.31% # Type of FU issued
system.cpu00.iq.FU_type_0::MemWrite            130432     13.69%    100.00% # Type of FU issued
system.cpu00.iq.FU_type_0::IprAccess                0      0.00%    100.00% # Type of FU issued
system.cpu00.iq.FU_type_0::InstPrefetch             0      0.00%    100.00% # Type of FU issued
system.cpu00.iq.FU_type_0::total               952582                       # Type of FU issued
system.cpu00.iq.rate                         0.934042                       # Inst issue rate
system.cpu00.iq.fu_busy_cnt                     31231                       # FU busy when requested
system.cpu00.iq.fu_busy_rate                 0.032786                       # FU busy rate (busy events/executed inst)
system.cpu00.iq.int_inst_queue_reads          2509092                       # Number of integer instruction queue reads
system.cpu00.iq.int_inst_queue_writes          949230                       # Number of integer instruction queue writes
system.cpu00.iq.int_inst_queue_wakeup_accesses       813156                       # Number of integer instruction queue wakeup accesses
system.cpu00.iq.fp_inst_queue_reads            243885                       # Number of floating instruction queue reads
system.cpu00.iq.fp_inst_queue_writes           123464                       # Number of floating instruction queue writes
system.cpu00.iq.fp_inst_queue_wakeup_accesses       116996                       # Number of floating instruction queue wakeup accesses
system.cpu00.iq.int_alu_accesses               858491                       # Number of integer alu accesses
system.cpu00.iq.fp_alu_accesses                125322                       # Number of floating point alu accesses
system.cpu00.iew.lsq.thread0.forwLoads          21305                       # Number of loads that had data forwarded from stores
system.cpu00.iew.lsq.thread0.invAddrLoads            0                       # Number of loads ignored due to an invalid address
system.cpu00.iew.lsq.thread0.squashedLoads        18482                       # Number of loads squashed
system.cpu00.iew.lsq.thread0.ignoredResponses          101                       # Number of memory responses ignored because the instruction is squashed
system.cpu00.iew.lsq.thread0.memOrderViolation          429                       # Number of memory ordering violations
system.cpu00.iew.lsq.thread0.squashedStores        15904                       # Number of stores squashed
system.cpu00.iew.lsq.thread0.invAddrSwpfs            0                       # Number of software prefetches ignored due to an invalid address
system.cpu00.iew.lsq.thread0.blockedLoads            0                       # Number of blocked loads due to partial load-store forwarding
system.cpu00.iew.lsq.thread0.rescheduledLoads          219                       # Number of loads that were rescheduled
system.cpu00.iew.lsq.thread0.cacheBlocked        11223                       # Number of times an access to memory failed due to the cache being blocked
system.cpu00.iew.iewIdleCycles                      0                       # Number of cycles IEW is idle
system.cpu00.iew.iewSquashCycles                 4619                       # Number of cycles IEW is squashing
system.cpu00.iew.iewBlockCycles                 22661                       # Number of cycles IEW is blocking
system.cpu00.iew.iewUnblockCycles               57444                       # Number of cycles IEW is unblocking
system.cpu00.iew.iewDispatchedInsts           1078545                       # Number of instructions dispatched to IQ
system.cpu00.iew.iewDispSquashedInsts            1400                       # Number of squashed instructions skipped by dispatch
system.cpu00.iew.iewDispLoadInsts              179423                       # Number of dispatched load instructions
system.cpu00.iew.iewDispStoreInsts             135420                       # Number of dispatched store instructions
system.cpu00.iew.iewDispNonSpecInsts             1577                       # Number of dispatched non-speculative instructions
system.cpu00.iew.iewIQFullEvents                  125                       # Number of times the IQ has become full, causing a stall
system.cpu00.iew.iewLSQFullEvents               57205                       # Number of times the LSQ has become full, causing a stall
system.cpu00.iew.memOrderViolationEvents          429                       # Number of memory order violations
system.cpu00.iew.predictedTakenIncorrect         1552                       # Number of branches that were predicted taken incorrectly
system.cpu00.iew.predictedNotTakenIncorrect         3109                       # Number of branches that were predicted not taken incorrectly
system.cpu00.iew.branchMispredicts               4661                       # Number of branch mispredicts detected at execute
system.cpu00.iew.iewExecutedInsts              945029                       # Number of executed instructions
system.cpu00.iew.iewExecLoadInsts              182568                       # Number of load instructions executed
system.cpu00.iew.iewExecSquashedInsts            7553                       # Number of squashed instructions skipped in execute
system.cpu00.iew.exec_swp                           0                       # number of swp insts executed
system.cpu00.iew.exec_nop                      107527                       # number of nop insts executed
system.cpu00.iew.exec_refs                     311431                       # number of memory reference insts executed
system.cpu00.iew.exec_branches                 110240                       # Number of branches executed
system.cpu00.iew.exec_stores                   128863                       # Number of stores executed
system.cpu00.iew.exec_rate                   0.926636                       # Inst execution rate
system.cpu00.iew.wb_sent                       933658                       # cumulative count of insts sent to commit
system.cpu00.iew.wb_count                      930152                       # cumulative count of insts written-back
system.cpu00.iew.wb_producers                  545504                       # num instructions producing a value
system.cpu00.iew.wb_consumers                  777600                       # num instructions consuming a value
system.cpu00.iew.wb_rate                     0.912049                       # insts written-back per cycle
system.cpu00.iew.wb_fanout                   0.701523                       # average fanout of values written-back
system.cpu00.commit.commitSquashedInsts        105644                       # The number of squashed insts skipped by commit
system.cpu00.commit.commitNonSpecStalls          2369                       # The number of times commit has been forced to stall to communicate backwards
system.cpu00.commit.branchMispredicts            3933                       # The number of times a branch was mispredicted
system.cpu00.commit.committed_per_cycle::samples       798237                       # Number of insts commited each cycle
system.cpu00.commit.committed_per_cycle::mean     1.213117                       # Number of insts commited each cycle
system.cpu00.commit.committed_per_cycle::stdev     2.309919                       # Number of insts commited each cycle
system.cpu00.commit.committed_per_cycle::underflows            0      0.00%      0.00% # Number of insts commited each cycle
system.cpu00.commit.committed_per_cycle::0       550148     68.92%     68.92% # Number of insts commited each cycle
system.cpu00.commit.committed_per_cycle::1        51643      6.47%     75.39% # Number of insts commited each cycle
system.cpu00.commit.committed_per_cycle::2        50962      6.38%     81.77% # Number of insts commited each cycle
system.cpu00.commit.committed_per_cycle::3        29943      3.75%     85.53% # Number of insts commited each cycle
system.cpu00.commit.committed_per_cycle::4        35492      4.45%     89.97% # Number of insts commited each cycle
system.cpu00.commit.committed_per_cycle::5         8888      1.11%     91.09% # Number of insts commited each cycle
system.cpu00.commit.committed_per_cycle::6        12799      1.60%     92.69% # Number of insts commited each cycle
system.cpu00.commit.committed_per_cycle::7         5139      0.64%     93.33% # Number of insts commited each cycle
system.cpu00.commit.committed_per_cycle::8        53223      6.67%    100.00% # Number of insts commited each cycle
system.cpu00.commit.committed_per_cycle::overflows            0      0.00%    100.00% # Number of insts commited each cycle
system.cpu00.commit.committed_per_cycle::min_value            0                       # Number of insts commited each cycle
system.cpu00.commit.committed_per_cycle::max_value            8                       # Number of insts commited each cycle
system.cpu00.commit.committed_per_cycle::total       798237                       # Number of insts commited each cycle
system.cpu00.commit.committedInsts             968355                       # Number of instructions committed
system.cpu00.commit.committedOps               968355                       # Number of ops (including micro ops) committed
system.cpu00.commit.swp_count                       0                       # Number of s/w prefetches committed
system.cpu00.commit.refs                       280457                       # Number of memory references committed
system.cpu00.commit.loads                      160941                       # Number of loads committed
system.cpu00.commit.membars                      1032                       # Number of memory barriers committed
system.cpu00.commit.branches                   100079                       # Number of branches committed
system.cpu00.commit.fp_insts                   116058                       # Number of committed floating point instructions.
system.cpu00.commit.int_insts                  791892                       # Number of committed integer instructions.
system.cpu00.commit.function_calls              22216                       # Number of function calls committed.
system.cpu00.commit.op_class_0::No_OpClass        98595     10.18%     10.18% # Class of committed instruction
system.cpu00.commit.op_class_0::IntAlu         503144     51.96%     62.14% # Class of committed instruction
system.cpu00.commit.op_class_0::IntMult         12689      1.31%     63.45% # Class of committed instruction
system.cpu00.commit.op_class_0::IntDiv              0      0.00%     63.45% # Class of committed instruction
system.cpu00.commit.op_class_0::FloatAdd        35480      3.66%     67.11% # Class of committed instruction
system.cpu00.commit.op_class_0::FloatCmp            8      0.00%     67.12% # Class of committed instruction
system.cpu00.commit.op_class_0::FloatCvt            0      0.00%     67.12% # Class of committed instruction
system.cpu00.commit.op_class_0::FloatMult        36935      3.81%     70.93% # Class of committed instruction
system.cpu00.commit.op_class_0::FloatDiv           14      0.00%     70.93% # Class of committed instruction
system.cpu00.commit.op_class_0::FloatSqrt            0      0.00%     70.93% # Class of committed instruction
system.cpu00.commit.op_class_0::SimdAdd             0      0.00%     70.93% # Class of committed instruction
system.cpu00.commit.op_class_0::SimdAddAcc            0      0.00%     70.93% # Class of committed instruction
system.cpu00.commit.op_class_0::SimdAlu             0      0.00%     70.93% # Class of committed instruction
system.cpu00.commit.op_class_0::SimdCmp             0      0.00%     70.93% # Class of committed instruction
system.cpu00.commit.op_class_0::SimdCvt             0      0.00%     70.93% # Class of committed instruction
system.cpu00.commit.op_class_0::SimdMisc            0      0.00%     70.93% # Class of committed instruction
system.cpu00.commit.op_class_0::SimdMult            0      0.00%     70.93% # Class of committed instruction
system.cpu00.commit.op_class_0::SimdMultAcc            0      0.00%     70.93% # Class of committed instruction
system.cpu00.commit.op_class_0::SimdShift            0      0.00%     70.93% # Class of committed instruction
system.cpu00.commit.op_class_0::SimdShiftAcc            0      0.00%     70.93% # Class of committed instruction
system.cpu00.commit.op_class_0::SimdSqrt            0      0.00%     70.93% # Class of committed instruction
system.cpu00.commit.op_class_0::SimdFloatAdd            0      0.00%     70.93% # Class of committed instruction
system.cpu00.commit.op_class_0::SimdFloatAlu            0      0.00%     70.93% # Class of committed instruction
system.cpu00.commit.op_class_0::SimdFloatCmp            0      0.00%     70.93% # Class of committed instruction
system.cpu00.commit.op_class_0::SimdFloatCvt            0      0.00%     70.93% # Class of committed instruction
system.cpu00.commit.op_class_0::SimdFloatDiv            0      0.00%     70.93% # Class of committed instruction
system.cpu00.commit.op_class_0::SimdFloatMisc            0      0.00%     70.93% # Class of committed instruction
system.cpu00.commit.op_class_0::SimdFloatMult            0      0.00%     70.93% # Class of committed instruction
system.cpu00.commit.op_class_0::SimdFloatMultAcc            0      0.00%     70.93% # Class of committed instruction
system.cpu00.commit.op_class_0::SimdFloatSqrt            0      0.00%     70.93% # Class of committed instruction
system.cpu00.commit.op_class_0::MemRead        161973     16.73%     87.66% # Class of committed instruction
system.cpu00.commit.op_class_0::MemWrite       119517     12.34%    100.00% # Class of committed instruction
system.cpu00.commit.op_class_0::IprAccess            0      0.00%    100.00% # Class of committed instruction
system.cpu00.commit.op_class_0::InstPrefetch            0      0.00%    100.00% # Class of committed instruction
system.cpu00.commit.op_class_0::total          968355                       # Class of committed instruction
system.cpu00.commit.bw_lim_events               53223                       # number cycles where commit BW limit reached
system.cpu00.rob.rob_reads                    1815022                       # The number of ROB reads
system.cpu00.rob.rob_writes                   2164773                       # The number of ROB writes
system.cpu00.timesIdled                          1448                       # Number of times that the entire CPU went into an idle state and unscheduled itself
system.cpu00.idleCycles                        204986                       # Total number of cycles that the CPU has spent unscheduled due to idling
system.cpu00.quiesceCycles                      59481                       # Total number of cycles that CPU has spent quiesced or waiting for an interrupt
system.cpu00.committedInsts                    869760                       # Number of Instructions Simulated
system.cpu00.committedOps                      869760                       # Number of Ops (including micro ops) Simulated
system.cpu00.cpi                             1.172564                       # CPI: Cycles Per Instruction
system.cpu00.cpi_total                       1.172564                       # CPI: Total CPI of All Threads
system.cpu00.ipc                             0.852832                       # IPC: Instructions Per Cycle
system.cpu00.ipc_total                       0.852832                       # IPC: Total IPC of All Threads
system.cpu00.int_regfile_reads                1141296                       # number of integer regfile reads
system.cpu00.int_regfile_writes                612323                       # number of integer regfile writes
system.cpu00.fp_regfile_reads                  151832                       # number of floating regfile reads
system.cpu00.fp_regfile_writes                 102904                       # number of floating regfile writes
system.cpu00.misc_regfile_reads                  4726                       # number of misc regfile reads
system.cpu00.misc_regfile_writes                 2247                       # number of misc regfile writes
system.cpu00.dcache.tags.replacements           14928                       # number of replacements
system.cpu00.dcache.tags.tagsinuse          63.082519                       # Cycle average of tags in use
system.cpu00.dcache.tags.total_refs            223975                       # Total number of references to valid blocks.
system.cpu00.dcache.tags.sampled_refs           14992                       # Sample count of references to valid blocks.
system.cpu00.dcache.tags.avg_refs           14.939634                       # Average number of references to valid blocks.
system.cpu00.dcache.tags.warmup_cycle        26316254                       # Cycle when the warmup percentage was hit.
system.cpu00.dcache.tags.occ_blocks::cpu00.data    63.082519                       # Average occupied blocks per requestor
system.cpu00.dcache.tags.occ_percent::cpu00.data     0.985664                       # Average percentage of cache occupancy
system.cpu00.dcache.tags.occ_percent::total     0.985664                       # Average percentage of cache occupancy
system.cpu00.dcache.tags.occ_task_id_blocks::1024           64                       # Occupied blocks per task id
system.cpu00.dcache.tags.age_task_id_blocks_1024::0           58                       # Occupied blocks per task id
system.cpu00.dcache.tags.age_task_id_blocks_1024::1            6                       # Occupied blocks per task id
system.cpu00.dcache.tags.occ_task_id_percent::1024            1                       # Percentage of cache occupancy per task id
system.cpu00.dcache.tags.tag_accesses         1098888                       # Number of tag accesses
system.cpu00.dcache.tags.data_accesses        1098888                       # Number of data accesses
system.cpu00.dcache.ReadReq_hits::cpu00.data       138795                       # number of ReadReq hits
system.cpu00.dcache.ReadReq_hits::total        138795                       # number of ReadReq hits
system.cpu00.dcache.WriteReq_hits::cpu00.data        83077                       # number of WriteReq hits
system.cpu00.dcache.WriteReq_hits::total        83077                       # number of WriteReq hits
system.cpu00.dcache.LoadLockedReq_hits::cpu00.data          886                       # number of LoadLockedReq hits
system.cpu00.dcache.LoadLockedReq_hits::total          886                       # number of LoadLockedReq hits
system.cpu00.dcache.StoreCondReq_hits::cpu00.data         1103                       # number of StoreCondReq hits
system.cpu00.dcache.StoreCondReq_hits::total         1103                       # number of StoreCondReq hits
system.cpu00.dcache.demand_hits::cpu00.data       221872                       # number of demand (read+write) hits
system.cpu00.dcache.demand_hits::total         221872                       # number of demand (read+write) hits
system.cpu00.dcache.overall_hits::cpu00.data       221872                       # number of overall hits
system.cpu00.dcache.overall_hits::total        221872                       # number of overall hits
system.cpu00.dcache.ReadReq_misses::cpu00.data        11437                       # number of ReadReq misses
system.cpu00.dcache.ReadReq_misses::total        11437                       # number of ReadReq misses
system.cpu00.dcache.WriteReq_misses::cpu00.data        35318                       # number of WriteReq misses
system.cpu00.dcache.WriteReq_misses::total        35318                       # number of WriteReq misses
system.cpu00.dcache.LoadLockedReq_misses::cpu00.data          312                       # number of LoadLockedReq misses
system.cpu00.dcache.LoadLockedReq_misses::total          312                       # number of LoadLockedReq misses
system.cpu00.dcache.StoreCondReq_misses::cpu00.data           18                       # number of StoreCondReq misses
system.cpu00.dcache.StoreCondReq_misses::total           18                       # number of StoreCondReq misses
system.cpu00.dcache.demand_misses::cpu00.data        46755                       # number of demand (read+write) misses
system.cpu00.dcache.demand_misses::total        46755                       # number of demand (read+write) misses
system.cpu00.dcache.overall_misses::cpu00.data        46755                       # number of overall misses
system.cpu00.dcache.overall_misses::total        46755                       # number of overall misses
system.cpu00.dcache.ReadReq_miss_latency::cpu00.data    448286133                       # number of ReadReq miss cycles
system.cpu00.dcache.ReadReq_miss_latency::total    448286133                       # number of ReadReq miss cycles
system.cpu00.dcache.WriteReq_miss_latency::cpu00.data   5388789503                       # number of WriteReq miss cycles
system.cpu00.dcache.WriteReq_miss_latency::total   5388789503                       # number of WriteReq miss cycles
system.cpu00.dcache.LoadLockedReq_miss_latency::cpu00.data      2866207                       # number of LoadLockedReq miss cycles
system.cpu00.dcache.LoadLockedReq_miss_latency::total      2866207                       # number of LoadLockedReq miss cycles
system.cpu00.dcache.StoreCondReq_miss_latency::cpu00.data       324520                       # number of StoreCondReq miss cycles
system.cpu00.dcache.StoreCondReq_miss_latency::total       324520                       # number of StoreCondReq miss cycles
system.cpu00.dcache.demand_miss_latency::cpu00.data   5837075636                       # number of demand (read+write) miss cycles
system.cpu00.dcache.demand_miss_latency::total   5837075636                       # number of demand (read+write) miss cycles
system.cpu00.dcache.overall_miss_latency::cpu00.data   5837075636                       # number of overall miss cycles
system.cpu00.dcache.overall_miss_latency::total   5837075636                       # number of overall miss cycles
system.cpu00.dcache.ReadReq_accesses::cpu00.data       150232                       # number of ReadReq accesses(hits+misses)
system.cpu00.dcache.ReadReq_accesses::total       150232                       # number of ReadReq accesses(hits+misses)
system.cpu00.dcache.WriteReq_accesses::cpu00.data       118395                       # number of WriteReq accesses(hits+misses)
system.cpu00.dcache.WriteReq_accesses::total       118395                       # number of WriteReq accesses(hits+misses)
system.cpu00.dcache.LoadLockedReq_accesses::cpu00.data         1198                       # number of LoadLockedReq accesses(hits+misses)
system.cpu00.dcache.LoadLockedReq_accesses::total         1198                       # number of LoadLockedReq accesses(hits+misses)
system.cpu00.dcache.StoreCondReq_accesses::cpu00.data         1121                       # number of StoreCondReq accesses(hits+misses)
system.cpu00.dcache.StoreCondReq_accesses::total         1121                       # number of StoreCondReq accesses(hits+misses)
system.cpu00.dcache.demand_accesses::cpu00.data       268627                       # number of demand (read+write) accesses
system.cpu00.dcache.demand_accesses::total       268627                       # number of demand (read+write) accesses
system.cpu00.dcache.overall_accesses::cpu00.data       268627                       # number of overall (read+write) accesses
system.cpu00.dcache.overall_accesses::total       268627                       # number of overall (read+write) accesses
system.cpu00.dcache.ReadReq_miss_rate::cpu00.data     0.076129                       # miss rate for ReadReq accesses
system.cpu00.dcache.ReadReq_miss_rate::total     0.076129                       # miss rate for ReadReq accesses
system.cpu00.dcache.WriteReq_miss_rate::cpu00.data     0.298307                       # miss rate for WriteReq accesses
system.cpu00.dcache.WriteReq_miss_rate::total     0.298307                       # miss rate for WriteReq accesses
system.cpu00.dcache.LoadLockedReq_miss_rate::cpu00.data     0.260434                       # miss rate for LoadLockedReq accesses
system.cpu00.dcache.LoadLockedReq_miss_rate::total     0.260434                       # miss rate for LoadLockedReq accesses
system.cpu00.dcache.StoreCondReq_miss_rate::cpu00.data     0.016057                       # miss rate for StoreCondReq accesses
system.cpu00.dcache.StoreCondReq_miss_rate::total     0.016057                       # miss rate for StoreCondReq accesses
system.cpu00.dcache.demand_miss_rate::cpu00.data     0.174052                       # miss rate for demand accesses
system.cpu00.dcache.demand_miss_rate::total     0.174052                       # miss rate for demand accesses
system.cpu00.dcache.overall_miss_rate::cpu00.data     0.174052                       # miss rate for overall accesses
system.cpu00.dcache.overall_miss_rate::total     0.174052                       # miss rate for overall accesses
system.cpu00.dcache.ReadReq_avg_miss_latency::cpu00.data 39196.129492                       # average ReadReq miss latency
system.cpu00.dcache.ReadReq_avg_miss_latency::total 39196.129492                       # average ReadReq miss latency
system.cpu00.dcache.WriteReq_avg_miss_latency::cpu00.data 152579.124044                       # average WriteReq miss latency
system.cpu00.dcache.WriteReq_avg_miss_latency::total 152579.124044                       # average WriteReq miss latency
system.cpu00.dcache.LoadLockedReq_avg_miss_latency::cpu00.data  9186.560897                       # average LoadLockedReq miss latency
system.cpu00.dcache.LoadLockedReq_avg_miss_latency::total  9186.560897                       # average LoadLockedReq miss latency
system.cpu00.dcache.StoreCondReq_avg_miss_latency::cpu00.data 18028.888889                       # average StoreCondReq miss latency
system.cpu00.dcache.StoreCondReq_avg_miss_latency::total 18028.888889                       # average StoreCondReq miss latency
system.cpu00.dcache.demand_avg_miss_latency::cpu00.data 124843.880569                       # average overall miss latency
system.cpu00.dcache.demand_avg_miss_latency::total 124843.880569                       # average overall miss latency
system.cpu00.dcache.overall_avg_miss_latency::cpu00.data 124843.880569                       # average overall miss latency
system.cpu00.dcache.overall_avg_miss_latency::total 124843.880569                       # average overall miss latency
system.cpu00.dcache.blocked_cycles::no_mshrs       160023                       # number of cycles access was blocked
system.cpu00.dcache.blocked_cycles::no_targets            0                       # number of cycles access was blocked
system.cpu00.dcache.blocked::no_mshrs            3288                       # number of cycles access was blocked
system.cpu00.dcache.blocked::no_targets             0                       # number of cycles access was blocked
system.cpu00.dcache.avg_blocked_cycles::no_mshrs    48.668796                       # average number of cycles each access was blocked
system.cpu00.dcache.avg_blocked_cycles::no_targets          nan                       # average number of cycles each access was blocked
system.cpu00.dcache.fast_writes                     0                       # number of fast writes performed
system.cpu00.dcache.cache_copies                    0                       # number of cache copies performed
system.cpu00.dcache.writebacks::writebacks        10768                       # number of writebacks
system.cpu00.dcache.writebacks::total           10768                       # number of writebacks
system.cpu00.dcache.ReadReq_mshr_hits::cpu00.data         3558                       # number of ReadReq MSHR hits
system.cpu00.dcache.ReadReq_mshr_hits::total         3558                       # number of ReadReq MSHR hits
system.cpu00.dcache.WriteReq_mshr_hits::cpu00.data        28191                       # number of WriteReq MSHR hits
system.cpu00.dcache.WriteReq_mshr_hits::total        28191                       # number of WriteReq MSHR hits
system.cpu00.dcache.LoadLockedReq_mshr_hits::cpu00.data          144                       # number of LoadLockedReq MSHR hits
system.cpu00.dcache.LoadLockedReq_mshr_hits::total          144                       # number of LoadLockedReq MSHR hits
system.cpu00.dcache.demand_mshr_hits::cpu00.data        31749                       # number of demand (read+write) MSHR hits
system.cpu00.dcache.demand_mshr_hits::total        31749                       # number of demand (read+write) MSHR hits
system.cpu00.dcache.overall_mshr_hits::cpu00.data        31749                       # number of overall MSHR hits
system.cpu00.dcache.overall_mshr_hits::total        31749                       # number of overall MSHR hits
system.cpu00.dcache.ReadReq_mshr_misses::cpu00.data         7879                       # number of ReadReq MSHR misses
system.cpu00.dcache.ReadReq_mshr_misses::total         7879                       # number of ReadReq MSHR misses
system.cpu00.dcache.WriteReq_mshr_misses::cpu00.data         7127                       # number of WriteReq MSHR misses
system.cpu00.dcache.WriteReq_mshr_misses::total         7127                       # number of WriteReq MSHR misses
system.cpu00.dcache.LoadLockedReq_mshr_misses::cpu00.data          168                       # number of LoadLockedReq MSHR misses
system.cpu00.dcache.LoadLockedReq_mshr_misses::total          168                       # number of LoadLockedReq MSHR misses
system.cpu00.dcache.StoreCondReq_mshr_misses::cpu00.data           18                       # number of StoreCondReq MSHR misses
system.cpu00.dcache.StoreCondReq_mshr_misses::total           18                       # number of StoreCondReq MSHR misses
system.cpu00.dcache.demand_mshr_misses::cpu00.data        15006                       # number of demand (read+write) MSHR misses
system.cpu00.dcache.demand_mshr_misses::total        15006                       # number of demand (read+write) MSHR misses
system.cpu00.dcache.overall_mshr_misses::cpu00.data        15006                       # number of overall MSHR misses
system.cpu00.dcache.overall_mshr_misses::total        15006                       # number of overall MSHR misses
system.cpu00.dcache.ReadReq_mshr_miss_latency::cpu00.data    254191880                       # number of ReadReq MSHR miss cycles
system.cpu00.dcache.ReadReq_mshr_miss_latency::total    254191880                       # number of ReadReq MSHR miss cycles
system.cpu00.dcache.WriteReq_mshr_miss_latency::cpu00.data   1140567134                       # number of WriteReq MSHR miss cycles
system.cpu00.dcache.WriteReq_mshr_miss_latency::total   1140567134                       # number of WriteReq MSHR miss cycles
system.cpu00.dcache.LoadLockedReq_mshr_miss_latency::cpu00.data      1292285                       # number of LoadLockedReq MSHR miss cycles
system.cpu00.dcache.LoadLockedReq_mshr_miss_latency::total      1292285                       # number of LoadLockedReq MSHR miss cycles
system.cpu00.dcache.StoreCondReq_mshr_miss_latency::cpu00.data       303658                       # number of StoreCondReq MSHR miss cycles
system.cpu00.dcache.StoreCondReq_mshr_miss_latency::total       303658                       # number of StoreCondReq MSHR miss cycles
system.cpu00.dcache.demand_mshr_miss_latency::cpu00.data   1394759014                       # number of demand (read+write) MSHR miss cycles
system.cpu00.dcache.demand_mshr_miss_latency::total   1394759014                       # number of demand (read+write) MSHR miss cycles
system.cpu00.dcache.overall_mshr_miss_latency::cpu00.data   1394759014                       # number of overall MSHR miss cycles
system.cpu00.dcache.overall_mshr_miss_latency::total   1394759014                       # number of overall MSHR miss cycles
system.cpu00.dcache.ReadReq_mshr_miss_rate::cpu00.data     0.052446                       # mshr miss rate for ReadReq accesses
system.cpu00.dcache.ReadReq_mshr_miss_rate::total     0.052446                       # mshr miss rate for ReadReq accesses
system.cpu00.dcache.WriteReq_mshr_miss_rate::cpu00.data     0.060197                       # mshr miss rate for WriteReq accesses
system.cpu00.dcache.WriteReq_mshr_miss_rate::total     0.060197                       # mshr miss rate for WriteReq accesses
system.cpu00.dcache.LoadLockedReq_mshr_miss_rate::cpu00.data     0.140234                       # mshr miss rate for LoadLockedReq accesses
system.cpu00.dcache.LoadLockedReq_mshr_miss_rate::total     0.140234                       # mshr miss rate for LoadLockedReq accesses
system.cpu00.dcache.StoreCondReq_mshr_miss_rate::cpu00.data     0.016057                       # mshr miss rate for StoreCondReq accesses
system.cpu00.dcache.StoreCondReq_mshr_miss_rate::total     0.016057                       # mshr miss rate for StoreCondReq accesses
system.cpu00.dcache.demand_mshr_miss_rate::cpu00.data     0.055862                       # mshr miss rate for demand accesses
system.cpu00.dcache.demand_mshr_miss_rate::total     0.055862                       # mshr miss rate for demand accesses
system.cpu00.dcache.overall_mshr_miss_rate::cpu00.data     0.055862                       # mshr miss rate for overall accesses
system.cpu00.dcache.overall_mshr_miss_rate::total     0.055862                       # mshr miss rate for overall accesses
system.cpu00.dcache.ReadReq_avg_mshr_miss_latency::cpu00.data 32261.946948                       # average ReadReq mshr miss latency
system.cpu00.dcache.ReadReq_avg_mshr_miss_latency::total 32261.946948                       # average ReadReq mshr miss latency
system.cpu00.dcache.WriteReq_avg_mshr_miss_latency::cpu00.data 160034.675740                       # average WriteReq mshr miss latency
system.cpu00.dcache.WriteReq_avg_mshr_miss_latency::total 160034.675740                       # average WriteReq mshr miss latency
[...]
system.tol2bus.pkt_count_system.cpu06.dcache.mem_side::system.l2.cpu_side         2664                       # Packet count per connected master and slave (bytes)
system.tol2bus.pkt_count_system.cpu07.icache.mem_side::system.l2.cpu_side         1745                       # Packet count per connected master and slave (bytes)
system.tol2bus.pkt_count_system.cpu07.dcache.mem_side::system.l2.cpu_side         1782                       # Packet count per connected master and slave (bytes)
system.tol2bus.pkt_count_system.cpu08.icache.mem_side::system.l2.cpu_side         1505                       # Packet count per connected master and slave (bytes)
system.tol2bus.pkt_count_system.cpu08.dcache.mem_side::system.l2.cpu_side         1959                       # Packet count per connected master and slave (bytes)
system.tol2bus.pkt_count_system.cpu09.icache.mem_side::system.l2.cpu_side         2293                       # Packet count per connected master and slave (bytes)
system.tol2bus.pkt_count_system.cpu09.dcache.mem_side::system.l2.cpu_side         3131                       # Packet count per connected master and slave (bytes)
system.tol2bus.pkt_count_system.cpu10.icache.mem_side::system.l2.cpu_side         2010                       # Packet count per connected master and slave (bytes)
system.tol2bus.pkt_count_system.cpu10.dcache.mem_side::system.l2.cpu_side         2308                       # Packet count per connected master and slave (bytes)
system.tol2bus.pkt_count_system.cpu11.icache.mem_side::system.l2.cpu_side         1156                       # Packet count per connected master and slave (bytes)
system.tol2bus.pkt_count_system.cpu11.dcache.mem_side::system.l2.cpu_side         1261                       # Packet count per connected master and slave (bytes)
system.tol2bus.pkt_count_system.cpu12.icache.mem_side::system.l2.cpu_side          933                       # Packet count per connected master and slave (bytes)
system.tol2bus.pkt_count_system.cpu12.dcache.mem_side::system.l2.cpu_side         1312                       # Packet count per connected master and slave (bytes)
system.tol2bus.pkt_count_system.cpu13.icache.mem_side::system.l2.cpu_side         2249                       # Packet count per connected master and slave (bytes)
system.tol2bus.pkt_count_system.cpu13.dcache.mem_side::system.l2.cpu_side         3075                       # Packet count per connected master and slave (bytes)
system.tol2bus.pkt_count_system.cpu14.icache.mem_side::system.l2.cpu_side         2263                       # Packet count per connected master and slave (bytes)
system.tol2bus.pkt_count_system.cpu14.dcache.mem_side::system.l2.cpu_side         2847                       # Packet count per connected master and slave (bytes)
system.tol2bus.pkt_count_system.cpu15.icache.mem_side::system.l2.cpu_side         1009                       # Packet count per connected master and slave (bytes)
system.tol2bus.pkt_count_system.cpu15.dcache.mem_side::system.l2.cpu_side         1279                       # Packet count per connected master and slave (bytes)
system.tol2bus.pkt_count::total                131290                       # Packet count per connected master and slave (bytes)
system.tol2bus.pkt_size_system.cpu00.icache.mem_side::system.l2.cpu_side       983552                       # Cumulative packet size per connected master and slave (bytes)
system.tol2bus.pkt_size_system.cpu00.dcache.mem_side::system.l2.cpu_side      1637440                       # Cumulative packet size per connected master and slave (bytes)
system.tol2bus.pkt_size_system.cpu01.icache.mem_side::system.l2.cpu_side       102080                       # Cumulative packet size per connected master and slave (bytes)
system.tol2bus.pkt_size_system.cpu01.dcache.mem_side::system.l2.cpu_side        83072                       # Cumulative packet size per connected master and slave (bytes)
system.tol2bus.pkt_size_system.cpu02.icache.mem_side::system.l2.cpu_side        82816                       # Cumulative packet size per connected master and slave (bytes)
system.tol2bus.pkt_size_system.cpu02.dcache.mem_side::system.l2.cpu_side        57408                       # Cumulative packet size per connected master and slave (bytes)
system.tol2bus.pkt_size_system.cpu03.icache.mem_side::system.l2.cpu_side        86016                       # Cumulative packet size per connected master and slave (bytes)
system.tol2bus.pkt_size_system.cpu03.dcache.mem_side::system.l2.cpu_side        63296                       # Cumulative packet size per connected master and slave (bytes)
system.tol2bus.pkt_size_system.cpu04.icache.mem_side::system.l2.cpu_side        94784                       # Cumulative packet size per connected master and slave (bytes)
system.tol2bus.pkt_size_system.cpu04.dcache.mem_side::system.l2.cpu_side        83456                       # Cumulative packet size per connected master and slave (bytes)
system.tol2bus.pkt_size_system.cpu05.icache.mem_side::system.l2.cpu_side        43776                       # Cumulative packet size per connected master and slave (bytes)
system.tol2bus.pkt_size_system.cpu05.dcache.mem_side::system.l2.cpu_side        33920                       # Cumulative packet size per connected master and slave (bytes)
system.tol2bus.pkt_size_system.cpu06.icache.mem_side::system.l2.cpu_side        91904                       # Cumulative packet size per connected master and slave (bytes)
system.tol2bus.pkt_size_system.cpu06.dcache.mem_side::system.l2.cpu_side        68352                       # Cumulative packet size per connected master and slave (bytes)
system.tol2bus.pkt_size_system.cpu07.icache.mem_side::system.l2.cpu_side        64640                       # Cumulative packet size per connected master and slave (bytes)
system.tol2bus.pkt_size_system.cpu07.dcache.mem_side::system.l2.cpu_side        43712                       # Cumulative packet size per connected master and slave (bytes)
system.tol2bus.pkt_size_system.cpu08.icache.mem_side::system.l2.cpu_side        54528                       # Cumulative packet size per connected master and slave (bytes)
system.tol2bus.pkt_size_system.cpu08.dcache.mem_side::system.l2.cpu_side        46592                       # Cumulative packet size per connected master and slave (bytes)
system.tol2bus.pkt_size_system.cpu09.icache.mem_side::system.l2.cpu_side        87552                       # Cumulative packet size per connected master and slave (bytes)
system.tol2bus.pkt_size_system.cpu09.dcache.mem_side::system.l2.cpu_side        75264                       # Cumulative packet size per connected master and slave (bytes)
system.tol2bus.pkt_size_system.cpu10.icache.mem_side::system.l2.cpu_side        75648                       # Cumulative packet size per connected master and slave (bytes)
system.tol2bus.pkt_size_system.cpu10.dcache.mem_side::system.l2.cpu_side        63168                       # Cumulative packet size per connected master and slave (bytes)
system.tol2bus.pkt_size_system.cpu11.icache.mem_side::system.l2.cpu_side        40576                       # Cumulative packet size per connected master and slave (bytes)
system.tol2bus.pkt_size_system.cpu11.dcache.mem_side::system.l2.cpu_side        33536                       # Cumulative packet size per connected master and slave (bytes)
system.tol2bus.pkt_size_system.cpu12.icache.mem_side::system.l2.cpu_side        31680                       # Cumulative packet size per connected master and slave (bytes)
system.tol2bus.pkt_size_system.cpu12.dcache.mem_side::system.l2.cpu_side        41728                       # Cumulative packet size per connected master and slave (bytes)
system.tol2bus.pkt_size_system.cpu13.icache.mem_side::system.l2.cpu_side        86080                       # Cumulative packet size per connected master and slave (bytes)
system.tol2bus.pkt_size_system.cpu13.dcache.mem_side::system.l2.cpu_side        76864                       # Cumulative packet size per connected master and slave (bytes)
system.tol2bus.pkt_size_system.cpu14.icache.mem_side::system.l2.cpu_side        86272                       # Cumulative packet size per connected master and slave (bytes)
system.tol2bus.pkt_size_system.cpu14.dcache.mem_side::system.l2.cpu_side        69760                       # Cumulative packet size per connected master and slave (bytes)
system.tol2bus.pkt_size_system.cpu15.icache.mem_side::system.l2.cpu_side        34752                       # Cumulative packet size per connected master and slave (bytes)
system.tol2bus.pkt_size_system.cpu15.dcache.mem_side::system.l2.cpu_side        40000                       # Cumulative packet size per connected master and slave (bytes)
system.tol2bus.pkt_size::total                4564224                       # Cumulative packet size per connected master and slave (bytes)
system.tol2bus.snoops                            7738                       # Total snoops (count)
system.tol2bus.snoop_fanout::samples            51792                       # Request fanout histogram
system.tol2bus.snoop_fanout::mean            2.130638                       # Request fanout histogram
system.tol2bus.snoop_fanout::stdev           3.765510                       # Request fanout histogram
system.tol2bus.snoop_fanout::underflows             0      0.00%      0.00% # Request fanout histogram
system.tol2bus.snoop_fanout::0                  30597     59.08%     59.08% # Request fanout histogram
system.tol2bus.snoop_fanout::1                   6512     12.57%     71.65% # Request fanout histogram
system.tol2bus.snoop_fanout::2                   2288      4.42%     76.07% # Request fanout histogram
system.tol2bus.snoop_fanout::3                   1353      2.61%     78.68% # Request fanout histogram
system.tol2bus.snoop_fanout::4                   1226      2.37%     81.05% # Request fanout histogram
system.tol2bus.snoop_fanout::5                   1202      2.32%     83.37% # Request fanout histogram
system.tol2bus.snoop_fanout::6                   1207      2.33%     85.70% # Request fanout histogram
system.tol2bus.snoop_fanout::7                   1184      2.29%     87.98% # Request fanout histogram
system.tol2bus.snoop_fanout::8                   1045      2.02%     90.00% # Request fanout histogram
system.tol2bus.snoop_fanout::9                    876      1.69%     91.69% # Request fanout histogram
system.tol2bus.snoop_fanout::10                   881      1.70%     93.39% # Request fanout histogram
system.tol2bus.snoop_fanout::11                   783      1.51%     94.91% # Request fanout histogram
system.tol2bus.snoop_fanout::12                   776      1.50%     96.40% # Request fanout histogram
system.tol2bus.snoop_fanout::13                   728      1.41%     97.81% # Request fanout histogram
system.tol2bus.snoop_fanout::14                   699      1.35%     99.16% # Request fanout histogram
system.tol2bus.snoop_fanout::15                   430      0.83%     99.99% # Request fanout histogram
system.tol2bus.snoop_fanout::16                     5      0.01%    100.00% # Request fanout histogram
system.tol2bus.snoop_fanout::17                     0      0.00%    100.00% # Request fanout histogram
system.tol2bus.snoop_fanout::18                     0      0.00%    100.00% # Request fanout histogram
system.tol2bus.snoop_fanout::19                     0      0.00%    100.00% # Request fanout histogram
system.tol2bus.snoop_fanout::20                     0      0.00%    100.00% # Request fanout histogram
system.tol2bus.snoop_fanout::21                     0      0.00%    100.00% # Request fanout histogram
system.tol2bus.snoop_fanout::22                     0      0.00%    100.00% # Request fanout histogram
system.tol2bus.snoop_fanout::23                     0      0.00%    100.00% # Request fanout histogram
system.tol2bus.snoop_fanout::24                     0      0.00%    100.00% # Request fanout histogram
system.tol2bus.snoop_fanout::25                     0      0.00%    100.00% # Request fanout histogram
system.tol2bus.snoop_fanout::26                     0      0.00%    100.00% # Request fanout histogram
system.tol2bus.snoop_fanout::27                     0      0.00%    100.00% # Request fanout histogram
system.tol2bus.snoop_fanout::28                     0      0.00%    100.00% # Request fanout histogram
system.tol2bus.snoop_fanout::29                     0      0.00%    100.00% # Request fanout histogram
system.tol2bus.snoop_fanout::30                     0      0.00%    100.00% # Request fanout histogram
system.tol2bus.snoop_fanout::31                     0      0.00%    100.00% # Request fanout histogram
system.tol2bus.snoop_fanout::32                     0      0.00%    100.00% # Request fanout histogram
system.tol2bus.snoop_fanout::overflows              0      0.00%    100.00% # Request fanout histogram
system.tol2bus.snoop_fanout::min_value              0                       # Request fanout histogram
system.tol2bus.snoop_fanout::max_value             16                       # Request fanout histogram
system.tol2bus.snoop_fanout::total              51792                       # Request fanout histogram
system.tol2bus.reqLayer0.occupancy          166576733                       # Layer occupancy (ticks)
system.tol2bus.reqLayer0.utilization             13.3                       # Layer utilization (%)
system.tol2bus.respLayer0.occupancy          27997315                       # Layer occupancy (ticks)
system.tol2bus.respLayer0.utilization             2.2                       # Layer utilization (%)
system.tol2bus.respLayer1.occupancy          52946721                       # Layer occupancy (ticks)
system.tol2bus.respLayer1.utilization             4.2                       # Layer utilization (%)
system.tol2bus.respLayer2.occupancy           3712014                       # Layer occupancy (ticks)
system.tol2bus.respLayer2.utilization             0.3                       # Layer utilization (%)
system.tol2bus.respLayer3.occupancy           4804461                       # Layer occupancy (ticks)
system.tol2bus.respLayer3.utilization             0.4                       # Layer utilization (%)
system.tol2bus.respLayer4.occupancy           3162571                       # Layer occupancy (ticks)
system.tol2bus.respLayer4.utilization             0.3                       # Layer utilization (%)
system.tol2bus.respLayer5.occupancy           3716991                       # Layer occupancy (ticks)
system.tol2bus.respLayer5.utilization             0.3                       # Layer utilization (%)
system.tol2bus.respLayer6.occupancy           3268310                       # Layer occupancy (ticks)
system.tol2bus.respLayer6.utilization             0.3                       # Layer utilization (%)
system.tol2bus.respLayer7.occupancy           3926573                       # Layer occupancy (ticks)
system.tol2bus.respLayer7.utilization             0.3                       # Layer utilization (%)
system.tol2bus.respLayer8.occupancy           3458883                       # Layer occupancy (ticks)
system.tol2bus.respLayer8.utilization             0.3                       # Layer utilization (%)
system.tol2bus.respLayer9.occupancy           4951683                       # Layer occupancy (ticks)
system.tol2bus.respLayer9.utilization             0.4                       # Layer utilization (%)
system.tol2bus.respLayer10.occupancy          1999904                       # Layer occupancy (ticks)
system.tol2bus.respLayer10.utilization            0.2                       # Layer utilization (%)
system.tol2bus.respLayer11.occupancy          1822056                       # Layer occupancy (ticks)
system.tol2bus.respLayer11.utilization            0.1                       # Layer utilization (%)
system.tol2bus.respLayer12.occupancy          3432648                       # Layer occupancy (ticks)
system.tol2bus.respLayer12.utilization            0.3                       # Layer utilization (%)
system.tol2bus.respLayer13.occupancy          3828575                       # Layer occupancy (ticks)
system.tol2bus.respLayer13.utilization            0.3                       # Layer utilization (%)
system.tol2bus.respLayer14.occupancy          2652652                       # Layer occupancy (ticks)
system.tol2bus.respLayer14.utilization            0.2                       # Layer utilization (%)
system.tol2bus.respLayer15.occupancy          2432658                       # Layer occupancy (ticks)
system.tol2bus.respLayer15.utilization            0.2                       # Layer utilization (%)
system.tol2bus.respLayer16.occupancy          2363143                       # Layer occupancy (ticks)
system.tol2bus.respLayer16.utilization            0.2                       # Layer utilization (%)
system.tol2bus.respLayer17.occupancy          2652827                       # Layer occupancy (ticks)
system.tol2bus.respLayer17.utilization            0.2                       # Layer utilization (%)
system.tol2bus.respLayer18.occupancy          3311426                       # Layer occupancy (ticks)
system.tol2bus.respLayer18.utilization            0.3                       # Layer utilization (%)
system.tol2bus.respLayer19.occupancy          4803950                       # Layer occupancy (ticks)
system.tol2bus.respLayer19.utilization            0.4                       # Layer utilization (%)
system.tol2bus.respLayer20.occupancy          3002514                       # Layer occupancy (ticks)
system.tol2bus.respLayer20.utilization            0.2                       # Layer utilization (%)
system.tol2bus.respLayer21.occupancy          3274060                       # Layer occupancy (ticks)
system.tol2bus.respLayer21.utilization            0.3                       # Layer utilization (%)
system.tol2bus.respLayer22.occupancy          1884260                       # Layer occupancy (ticks)
system.tol2bus.respLayer22.utilization            0.2                       # Layer utilization (%)
system.tol2bus.respLayer23.occupancy          1818022                       # Layer occupancy (ticks)
system.tol2bus.respLayer23.utilization            0.1                       # Layer utilization (%)
system.tol2bus.respLayer24.occupancy          1569052                       # Layer occupancy (ticks)
system.tol2bus.respLayer24.utilization            0.1                       # Layer utilization (%)
system.tol2bus.respLayer25.occupancy          1742664                       # Layer occupancy (ticks)
system.tol2bus.respLayer25.utilization            0.1                       # Layer utilization (%)
system.tol2bus.respLayer26.occupancy          3262280                       # Layer occupancy (ticks)
system.tol2bus.respLayer26.utilization            0.3                       # Layer utilization (%)
system.tol2bus.respLayer27.occupancy          4493453                       # Layer occupancy (ticks)
system.tol2bus.respLayer27.utilization            0.4                       # Layer utilization (%)
system.tol2bus.respLayer28.occupancy          3256268                       # Layer occupancy (ticks)
system.tol2bus.respLayer28.utilization            0.3                       # Layer utilization (%)
system.tol2bus.respLayer29.occupancy          4235318                       # Layer occupancy (ticks)
system.tol2bus.respLayer29.utilization            0.3                       # Layer utilization (%)
system.tol2bus.respLayer30.occupancy          1662149                       # Layer occupancy (ticks)
system.tol2bus.respLayer30.utilization            0.1                       # Layer utilization (%)
system.tol2bus.respLayer31.occupancy          1734631                       # Layer occupancy (ticks)
system.tol2bus.respLayer31.utilization            0.1                       # Layer utilization (%)

---------- End Simulation Statistics   ----------
