
---------- Begin Simulation Statistics ----------
sim_seconds                                  0.001275                       # Number of seconds simulated
sim_ticks                                  1275443571                       # Number of ticks simulated
final_tick                                 1275443571                       # Number of ticks from beginning of simulation (restored from checkpoints and never reset)
sim_freq                                 1000000000000                       # Frequency of simulated ticks
host_inst_rate                                 222924                       # Simulator instruction rate (inst/s)
host_op_rate                                   222923                       # Simulator op (including micro ops) rate (op/s)
host_tick_rate                              129138093                       # Simulator tick rate (ticks/s)
host_mem_usage                                 694720                       # Number of bytes of host memory used
host_seconds                                     9.88                       # Real time elapsed on the host
sim_insts                                     2201719                       # Number of instructions simulated
sim_ops                                       2201719                       # Number of ops (including micro ops) simulated
system.voltage_domain.voltage                       1                       # Voltage in Volts
system.clk_domain.clock                          1000                       # Clock period in ticks
system.mem_ctrls.bytes_read::cpu00.inst        123584                       # Number of bytes read from this memory
system.mem_ctrls.bytes_read::cpu00.data        378368                       # Number of bytes read from this memory
system.mem_ctrls.bytes_read::cpu01.inst         12416                       # Number of bytes read from this memory
system.mem_ctrls.bytes_read::cpu01.data          6848                       # Number of bytes read from this memory
system.mem_ctrls.bytes_read::cpu02.inst          1216                       # Number of bytes read from this memory
system.mem_ctrls.bytes_read::cpu02.data          6016                       # Number of bytes read from this memory
system.mem_ctrls.bytes_read::cpu03.inst          1280                       # Number of bytes read from this memory
system.mem_ctrls.bytes_read::cpu03.data          7040                       # Number of bytes read from this memory
system.mem_ctrls.bytes_read::cpu04.inst           768                       # Number of bytes read from this memory
system.mem_ctrls.bytes_read::cpu04.data          6720                       # Number of bytes read from this memory
system.mem_ctrls.bytes_read::cpu05.inst          2816                       # Number of bytes read from this memory
system.mem_ctrls.bytes_read::cpu05.data          5568                       # Number of bytes read from this memory
system.mem_ctrls.bytes_read::cpu06.inst          4160                       # Number of bytes read from this memory
system.mem_ctrls.bytes_read::cpu06.data          6656                       # Number of bytes read from this memory
system.mem_ctrls.bytes_read::cpu07.inst           448                       # Number of bytes read from this memory
system.mem_ctrls.bytes_read::cpu07.data          4992                       # Number of bytes read from this memory
system.mem_ctrls.bytes_read::cpu08.inst           384                       # Number of bytes read from this memory
system.mem_ctrls.bytes_read::cpu08.data          4992                       # Number of bytes read from this memory
system.mem_ctrls.bytes_read::cpu09.inst           320                       # Number of bytes read from this memory
system.mem_ctrls.bytes_read::cpu09.data          4608                       # Number of bytes read from this memory
system.mem_ctrls.bytes_read::cpu10.inst          1600                       # Number of bytes read from this memory
system.mem_ctrls.bytes_read::cpu10.data          6656                       # Number of bytes read from this memory
system.mem_ctrls.bytes_read::cpu11.inst          1408                       # Number of bytes read from this memory
system.mem_ctrls.bytes_read::cpu11.data          6080                       # Number of bytes read from this memory
system.mem_ctrls.bytes_read::cpu12.inst           320                       # Number of bytes read from this memory
system.mem_ctrls.bytes_read::cpu12.data          6656                       # Number of bytes read from this memory
system.mem_ctrls.bytes_read::cpu13.inst          2752                       # Number of bytes read from this memory
system.mem_ctrls.bytes_read::cpu13.data          6144                       # Number of bytes read from this memory
system.mem_ctrls.bytes_read::cpu14.inst           960                       # Number of bytes read from this memory
system.mem_ctrls.bytes_read::cpu14.data          6464                       # Number of bytes read from this memory
system.mem_ctrls.bytes_read::cpu15.inst           576                       # Number of bytes read from this memory
system.mem_ctrls.bytes_read::cpu15.data          4480                       # Number of bytes read from this memory
system.mem_ctrls.bytes_read::total             623296                       # Number of bytes read from this memory
system.mem_ctrls.bytes_inst_read::cpu00.inst       123584                       # Number of instructions bytes read from this memory
system.mem_ctrls.bytes_inst_read::cpu01.inst        12416                       # Number of instructions bytes read from this memory
system.mem_ctrls.bytes_inst_read::cpu02.inst         1216                       # Number of instructions bytes read from this memory
system.mem_ctrls.bytes_inst_read::cpu03.inst         1280                       # Number of instructions bytes read from this memory
system.mem_ctrls.bytes_inst_read::cpu04.inst          768                       # Number of instructions bytes read from this memory
system.mem_ctrls.bytes_inst_read::cpu05.inst         2816                       # Number of instructions bytes read from this memory
system.mem_ctrls.bytes_inst_read::cpu06.inst         4160                       # Number of instructions bytes read from this memory
system.mem_ctrls.bytes_inst_read::cpu07.inst          448                       # Number of instructions bytes read from this memory
system.mem_ctrls.bytes_inst_read::cpu08.inst          384                       # Number of instructions bytes read from this memory
system.mem_ctrls.bytes_inst_read::cpu09.inst          320                       # Number of instructions bytes read from this memory
system.mem_ctrls.bytes_inst_read::cpu10.inst         1600                       # Number of instructions bytes read from this memory
system.mem_ctrls.bytes_inst_read::cpu11.inst         1408                       # Number of instructions bytes read from this memory
system.mem_ctrls.bytes_inst_read::cpu12.inst          320                       # Number of instructions bytes read from this memory
system.mem_ctrls.bytes_inst_read::cpu13.inst         2752                       # Number of instructions bytes read from this memory
system.mem_ctrls.bytes_inst_read::cpu14.inst          960                       # Number of instructions bytes read from this memory
system.mem_ctrls.bytes_inst_read::cpu15.inst          576                       # Number of instructions bytes read from this memory
system.mem_ctrls.bytes_inst_read::total        155008                       # Number of instructions bytes read from this memory
system.mem_ctrls.bytes_written::writebacks        80448                       # Number of bytes written to this memory
system.mem_ctrls.bytes_written::total           80448                       # Number of bytes written to this memory
system.mem_ctrls.num_reads::cpu00.inst           1931                       # Number of read requests responded to by this memory
system.mem_ctrls.num_reads::cpu00.data           5912                       # Number of read requests responded to by this memory
system.mem_ctrls.num_reads::cpu01.inst            194                       # Number of read requests responded to by this memory
system.mem_ctrls.num_reads::cpu01.data            107                       # Number of read requests responded to by this memory
system.mem_ctrls.num_reads::cpu02.inst             19                       # Number of read requests responded to by this memory
system.mem_ctrls.num_reads::cpu02.data             94                       # Number of read requests responded to by this memory
system.mem_ctrls.num_reads::cpu03.inst             20                       # Number of read requests responded to by this memory
system.mem_ctrls.num_reads::cpu03.data            110                       # Number of read requests responded to by this memory
system.mem_ctrls.num_reads::cpu04.inst             12                       # Number of read requests responded to by this memory
system.mem_ctrls.num_reads::cpu04.data            105                       # Number of read requests responded to by this memory
system.mem_ctrls.num_reads::cpu05.inst             44                       # Number of read requests responded to by this memory
system.mem_ctrls.num_reads::cpu05.data             87                       # Number of read requests responded to by this memory
system.mem_ctrls.num_reads::cpu06.inst             65                       # Number of read requests responded to by this memory
system.mem_ctrls.num_reads::cpu06.data            104                       # Number of read requests responded to by this memory
system.mem_ctrls.num_reads::cpu07.inst              7                       # Number of read requests responded to by this memory
system.mem_ctrls.num_reads::cpu07.data             78                       # Number of read requests responded to by this memory
system.mem_ctrls.num_reads::cpu08.inst              6                       # Number of read requests responded to by this memory
system.mem_ctrls.num_reads::cpu08.data             78                       # Number of read requests responded to by this memory
system.mem_ctrls.num_reads::cpu09.inst              5                       # Number of read requests responded to by this memory
system.mem_ctrls.num_reads::cpu09.data             72                       # Number of read requests responded to by this memory
system.mem_ctrls.num_reads::cpu10.inst             25                       # Number of read requests responded to by this memory
system.mem_ctrls.num_reads::cpu10.data            104                       # Number of read requests responded to by this memory
system.mem_ctrls.num_reads::cpu11.inst             22                       # Number of read requests responded to by this memory
system.mem_ctrls.num_reads::cpu11.data             95                       # Number of read requests responded to by this memory
system.mem_ctrls.num_reads::cpu12.inst              5                       # Number of read requests responded to by this memory
system.mem_ctrls.num_reads::cpu12.data            104                       # Number of read requests responded to by this memory
system.mem_ctrls.num_reads::cpu13.inst             43                       # Number of read requests responded to by this memory
system.mem_ctrls.num_reads::cpu13.data             96                       # Number of read requests responded to by this memory
system.mem_ctrls.num_reads::cpu14.inst             15                       # Number of read requests responded to by this memory
system.mem_ctrls.num_reads::cpu14.data            101                       # Number of read requests responded to by this memory
system.mem_ctrls.num_reads::cpu15.inst              9                       # Number of read requests responded to by this memory
system.mem_ctrls.num_reads::cpu15.data             70                       # Number of read requests responded to by this memory
system.mem_ctrls.num_reads::total                9739                       # Number of read requests responded to by this memory
system.mem_ctrls.num_writes::writebacks          1257                       # Number of write requests responded to by this memory
system.mem_ctrls.num_writes::total               1257                       # Number of write requests responded to by this memory
system.mem_ctrls.bw_read::cpu00.inst         96894918                       # Total read bandwidth from this memory (bytes/s)
system.mem_ctrls.bw_read::cpu00.data        296656009                       # Total read bandwidth from this memory (bytes/s)
system.mem_ctrls.bw_read::cpu01.inst          9734653                       # Total read bandwidth from this memory (bytes/s)
system.mem_ctrls.bw_read::cpu01.data          5369112                       # Total read bandwidth from this memory (bytes/s)
system.mem_ctrls.bw_read::cpu02.inst           953394                       # Total read bandwidth from this memory (bytes/s)
system.mem_ctrls.bw_read::cpu02.data          4716790                       # Total read bandwidth from this memory (bytes/s)
system.mem_ctrls.bw_read::cpu03.inst          1003572                       # Total read bandwidth from this memory (bytes/s)
system.mem_ctrls.bw_read::cpu03.data          5519648                       # Total read bandwidth from this memory (bytes/s)
system.mem_ctrls.bw_read::cpu04.inst           602143                       # Total read bandwidth from this memory (bytes/s)
system.mem_ctrls.bw_read::cpu04.data          5268755                       # Total read bandwidth from this memory (bytes/s)
system.mem_ctrls.bw_read::cpu05.inst          2207859                       # Total read bandwidth from this memory (bytes/s)
system.mem_ctrls.bw_read::cpu05.data          4365540                       # Total read bandwidth from this memory (bytes/s)
system.mem_ctrls.bw_read::cpu06.inst          3261610                       # Total read bandwidth from this memory (bytes/s)
system.mem_ctrls.bw_read::cpu06.data          5218577                       # Total read bandwidth from this memory (bytes/s)
system.mem_ctrls.bw_read::cpu07.inst           351250                       # Total read bandwidth from this memory (bytes/s)
system.mem_ctrls.bw_read::cpu07.data          3913932                       # Total read bandwidth from this memory (bytes/s)
system.mem_ctrls.bw_read::cpu08.inst           301072                       # Total read bandwidth from this memory (bytes/s)
system.mem_ctrls.bw_read::cpu08.data          3913932                       # Total read bandwidth from this memory (bytes/s)
system.mem_ctrls.bw_read::cpu09.inst           250893                       # Total read bandwidth from this memory (bytes/s)
system.mem_ctrls.bw_read::cpu09.data          3612861                       # Total read bandwidth from this memory (bytes/s)
system.mem_ctrls.bw_read::cpu10.inst          1254466                       # Total read bandwidth from this memory (bytes/s)
system.mem_ctrls.bw_read::cpu10.data          5218577                       # Total read bandwidth from this memory (bytes/s)
system.mem_ctrls.bw_read::cpu11.inst          1103930                       # Total read bandwidth from this memory (bytes/s)
system.mem_ctrls.bw_read::cpu11.data          4766969                       # Total read bandwidth from this memory (bytes/s)
system.mem_ctrls.bw_read::cpu12.inst           250893                       # Total read bandwidth from this memory (bytes/s)
system.mem_ctrls.bw_read::cpu12.data          5218577                       # Total read bandwidth from this memory (bytes/s)
system.mem_ctrls.bw_read::cpu13.inst          2157681                       # Total read bandwidth from this memory (bytes/s)
system.mem_ctrls.bw_read::cpu13.data          4817148                       # Total read bandwidth from this memory (bytes/s)
system.mem_ctrls.bw_read::cpu14.inst           752679                       # Total read bandwidth from this memory (bytes/s)
system.mem_ctrls.bw_read::cpu14.data          5068041                       # Total read bandwidth from this memory (bytes/s)
system.mem_ctrls.bw_read::cpu15.inst           451608                       # Total read bandwidth from this memory (bytes/s)
system.mem_ctrls.bw_read::cpu15.data          3512503                       # Total read bandwidth from this memory (bytes/s)
system.mem_ctrls.bw_read::total             488689593                       # Total read bandwidth from this memory (bytes/s)
system.mem_ctrls.bw_inst_read::cpu00.inst     96894918                       # Instruction read bandwidth from this memory (bytes/s)
system.mem_ctrls.bw_inst_read::cpu01.inst      9734653                       # Instruction read bandwidth from this memory (bytes/s)
system.mem_ctrls.bw_inst_read::cpu02.inst       953394                       # Instruction read bandwidth from this memory (bytes/s)
system.mem_ctrls.bw_inst_read::cpu03.inst      1003572                       # Instruction read bandwidth from this memory (bytes/s)
system.mem_ctrls.bw_inst_read::cpu04.inst       602143                       # Instruction read bandwidth from this memory (bytes/s)
system.mem_ctrls.bw_inst_read::cpu05.inst      2207859                       # Instruction read bandwidth from this memory (bytes/s)
system.mem_ctrls.bw_inst_read::cpu06.inst      3261610                       # Instruction read bandwidth from this memory (bytes/s)
system.mem_ctrls.bw_inst_read::cpu07.inst       351250                       # Instruction read bandwidth from this memory (bytes/s)
system.mem_ctrls.bw_inst_read::cpu08.inst       301072                       # Instruction read bandwidth from this memory (bytes/s)
system.mem_ctrls.bw_inst_read::cpu09.inst       250893                       # Instruction read bandwidth from this memory (bytes/s)
system.mem_ctrls.bw_inst_read::cpu10.inst      1254466                       # Instruction read bandwidth from this memory (bytes/s)
system.mem_ctrls.bw_inst_read::cpu11.inst      1103930                       # Instruction read bandwidth from this memory (bytes/s)
system.mem_ctrls.bw_inst_read::cpu12.inst       250893                       # Instruction read bandwidth from this memory (bytes/s)
system.mem_ctrls.bw_inst_read::cpu13.inst      2157681                       # Instruction read bandwidth from this memory (bytes/s)
system.mem_ctrls.bw_inst_read::cpu14.inst       752679                       # Instruction read bandwidth from this memory (bytes/s)
system.mem_ctrls.bw_inst_read::cpu15.inst       451608                       # Instruction read bandwidth from this memory (bytes/s)
system.mem_ctrls.bw_inst_read::total        121532621                       # Instruction read bandwidth from this memory (bytes/s)
system.mem_ctrls.bw_write::writebacks        63074527                       # Write bandwidth from this memory (bytes/s)
system.mem_ctrls.bw_write::total             63074527                       # Write bandwidth from this memory (bytes/s)
system.mem_ctrls.bw_total::writebacks        63074527                       # Total bandwidth to/from this memory (bytes/s)
system.mem_ctrls.bw_total::cpu00.inst        96894918                       # Total bandwidth to/from this memory (bytes/s)
system.mem_ctrls.bw_total::cpu00.data       296656009                       # Total bandwidth to/from this memory (bytes/s)
system.mem_ctrls.bw_total::cpu01.inst         9734653                       # Total bandwidth to/from this memory (bytes/s)
system.mem_ctrls.bw_total::cpu01.data         5369112                       # Total bandwidth to/from this memory (bytes/s)
system.mem_ctrls.bw_total::cpu02.inst          953394                       # Total bandwidth to/from this memory (bytes/s)
system.mem_ctrls.bw_total::cpu02.data         4716790                       # Total bandwidth to/from this memory (bytes/s)
system.mem_ctrls.bw_total::cpu03.inst         1003572                       # Total bandwidth to/from this memory (bytes/s)
system.mem_ctrls.bw_total::cpu03.data         5519648                       # Total bandwidth to/from this memory (bytes/s)
system.mem_ctrls.bw_total::cpu04.inst          602143                       # Total bandwidth to/from this memory (bytes/s)
system.mem_ctrls.bw_total::cpu04.data         5268755                       # Total bandwidth to/from this memory (bytes/s)
system.mem_ctrls.bw_total::cpu05.inst         2207859                       # Total bandwidth to/from this memory (bytes/s)
system.mem_ctrls.bw_total::cpu05.data         4365540                       # Total bandwidth to/from this memory (bytes/s)
system.mem_ctrls.bw_total::cpu06.inst         3261610                       # Total bandwidth to/from this memory (bytes/s)
system.mem_ctrls.bw_total::cpu06.data         5218577                       # Total bandwidth to/from this memory (bytes/s)
system.mem_ctrls.bw_total::cpu07.inst          351250                       # Total bandwidth to/from this memory (bytes/s)
system.mem_ctrls.bw_total::cpu07.data         3913932                       # Total bandwidth to/from this memory (bytes/s)
system.mem_ctrls.bw_total::cpu08.inst          301072                       # Total bandwidth to/from this memory (bytes/s)
system.mem_ctrls.bw_total::cpu08.data         3913932                       # Total bandwidth to/from this memory (bytes/s)
system.mem_ctrls.bw_total::cpu09.inst          250893                       # Total bandwidth to/from this memory (bytes/s)
system.mem_ctrls.bw_total::cpu09.data         3612861                       # Total bandwidth to/from this memory (bytes/s)
system.mem_ctrls.bw_total::cpu10.inst         1254466                       # Total bandwidth to/from this memory (bytes/s)
system.mem_ctrls.bw_total::cpu10.data         5218577                       # Total bandwidth to/from this memory (bytes/s)
system.mem_ctrls.bw_total::cpu11.inst         1103930                       # Total bandwidth to/from this memory (bytes/s)
system.mem_ctrls.bw_total::cpu11.data         4766969                       # Total bandwidth to/from this memory (bytes/s)
system.mem_ctrls.bw_total::cpu12.inst          250893                       # Total bandwidth to/from this memory (bytes/s)
system.mem_ctrls.bw_total::cpu12.data         5218577                       # Total bandwidth to/from this memory (bytes/s)
system.mem_ctrls.bw_total::cpu13.inst         2157681                       # Total bandwidth to/from this memory (bytes/s)
system.mem_ctrls.bw_total::cpu13.data         4817148                       # Total bandwidth to/from this memory (bytes/s)
system.mem_ctrls.bw_total::cpu14.inst          752679                       # Total bandwidth to/from this memory (bytes/s)
system.mem_ctrls.bw_total::cpu14.data         5068041                       # Total bandwidth to/from this memory (bytes/s)
system.mem_ctrls.bw_total::cpu15.inst          451608                       # Total bandwidth to/from this memory (bytes/s)
system.mem_ctrls.bw_total::cpu15.data         3512503                       # Total bandwidth to/from this memory (bytes/s)
system.mem_ctrls.bw_total::total            551764120                       # Total bandwidth to/from this memory (bytes/s)
system.cpu00.branchPred.lookups                132227                       # Number of BP lookups
system.cpu00.branchPred.condPredicted           73580                       # Number of conditional branches predicted
system.cpu00.branchPred.condIncorrect            5683                       # Number of conditional branches incorrect
system.cpu00.branchPred.BTBLookups              88532                       # Number of BTB lookups
system.cpu00.branchPred.BTBHits                 66328                       # Number of BTB hits
system.cpu00.branchPred.BTBCorrect                  0                       # Number of correct BTB predictions (this stat may not work properly.
system.cpu00.branchPred.BTBHitPct           74.919803                       # BTB Hit Percentage
system.cpu00.branchPred.usedRAS                 26424                       # Number of times the RAS was used to get a target.
system.cpu00.branchPred.RASInCorrect               87                       # Number of incorrect RAS predictions.
system.cpu00.branchPred.indirectLookups          3665                       # Number of indirect predictor lookups.
system.cpu00.branchPred.indirectHits             2898                       # Number of indirect target hits.
system.cpu00.branchPred.indirectMisses            767                       # Number of indirect misses.
system.cpu00.branchPredindirectMispredicted          257                       # Number of mispredicted indirect branches.
system.cpu_voltage_domain.voltage                   1                       # Voltage in Volts
system.cpu_clk_domain.clock                      1159                       # Clock period in ticks
system.cpu00.dtb.fetch_hits                         0                       # ITB hits
system.cpu00.dtb.fetch_misses                       0                       # ITB misses
system.cpu00.dtb.fetch_acv                          0                       # ITB acv
system.cpu00.dtb.fetch_accesses                     0                       # ITB accesses
system.cpu00.dtb.read_hits                     182026                       # DTB read hits
system.cpu00.dtb.read_misses                      627                       # DTB read misses
system.cpu00.dtb.read_acv                           0                       # DTB read access violations
system.cpu00.dtb.read_accesses                 182653                       # DTB read accesses
system.cpu00.dtb.write_hits                    127810                       # DTB write hits
system.cpu00.dtb.write_misses                    1088                       # DTB write misses
system.cpu00.dtb.write_acv                          0                       # DTB write access violations
system.cpu00.dtb.write_accesses                128898                       # DTB write accesses
system.cpu00.dtb.data_hits                     309836                       # DTB hits
system.cpu00.dtb.data_misses                     1715                       # DTB misses
system.cpu00.dtb.data_acv                           0                       # DTB access violations
system.cpu00.dtb.data_accesses                 311551                       # DTB accesses
system.cpu00.itb.fetch_hits                    149004                       # ITB hits
system.cpu00.itb.fetch_misses                     157                       # ITB misses
system.cpu00.itb.fetch_acv                          0                       # ITB acv
system.cpu00.itb.fetch_accesses                149161                       # ITB accesses
system.cpu00.itb.read_hits                          0                       # DTB read hits
system.cpu00.itb.read_misses                        0                       # DTB read misses
system.cpu00.itb.read_acv                           0                       # DTB read access violations
system.cpu00.itb.read_accesses                      0                       # DTB read accesses
system.cpu00.itb.write_hits                         0                       # DTB write hits
system.cpu00.itb.write_misses                       0                       # DTB write misses
system.cpu00.itb.write_acv                          0                       # DTB write access violations
system.cpu00.itb.write_accesses                     0                       # DTB write accesses
system.cpu00.itb.data_hits                          0                       # DTB hits
system.cpu00.itb.data_misses                        0                       # DTB misses
system.cpu00.itb.data_acv                           0                       # DTB access violations
system.cpu00.itb.data_accesses                      0                       # DTB accesses
system.cpu00.workload.num_syscalls               2107                       # Number of system calls
system.cpu00.numCycles                        1031012                       # number of cpu cycles simulated
system.cpu00.numWorkItemsStarted                    0                       # number of work items this cpu started
system.cpu00.numWorkItemsCompleted                  0                       # number of work items this cpu completed
system.cpu00.fetch.icacheStallCycles            83004                       # Number of cycles fetch is stalled on an Icache miss
system.cpu00.fetch.Insts                      1187926                       # Number of instructions fetch has processed
system.cpu00.fetch.Branches                    132227                       # Number of branches that fetch encountered
system.cpu00.fetch.predictedBranches            95650                       # Number of branches that fetch has predicted taken
system.cpu00.fetch.Cycles                      726584                       # Number of cycles fetch has run and was not squashing or blocked
system.cpu00.fetch.SquashCycles                 12740                       # Number of cycles fetch has spent squashing
system.cpu00.fetch.MiscStallCycles                565                       # Number of cycles fetch has spent waiting on interrupts, or bad addresses, or out of MSHRs
system.cpu00.fetch.PendingTrapStallCycles         6228                       # Number of stall cycles due to pending traps
system.cpu00.fetch.IcacheWaitRetryStallCycles          654                       # Number of stall cycles due to full MSHR
system.cpu00.fetch.CacheLines                  149004                       # Number of cache lines fetched
system.cpu00.fetch.IcacheSquashes                2610                       # Number of outstanding Icache misses that were squashed
system.cpu00.fetch.rateDist::samples           823405                       # Number of instructions fetched each cycle (Total)
system.cpu00.fetch.rateDist::mean            1.442700                       # Number of instructions fetched each cycle (Total)
system.cpu00.fetch.rateDist::stdev           2.713226                       # Number of instructions fetched each cycle (Total)
system.cpu00.fetch.rateDist::underflows             0      0.00%      0.00% # Number of instructions fetched each cycle (Total)
system.cpu00.fetch.rateDist::0                 605840     73.58%     73.58% # Number of instructions fetched each cycle (Total)
system.cpu00.fetch.rateDist::1                  16360      1.99%     75.56% # Number of instructions fetched each cycle (Total)
system.cpu00.fetch.rateDist::2                  17499      2.13%     77.69% # Number of instructions fetched each cycle (Total)
system.cpu00.fetch.rateDist::3                  17004      2.07%     79.75% # Number of instructions fetched each cycle (Total)
system.cpu00.fetch.rateDist::4                  38022      4.62%     84.37% # Number of instructions fetched each cycle (Total)
system.cpu00.fetch.rateDist::5                  15669      1.90%     86.28% # Number of instructions fetched each cycle (Total)
system.cpu00.fetch.rateDist::6                  18844      2.29%     88.56% # Number of instructions fetched each cycle (Total)
system.cpu00.fetch.rateDist::7                  11277      1.37%     89.93% # Number of instructions fetched each cycle (Total)
system.cpu00.fetch.rateDist::8                  82890     10.07%    100.00% # Number of instructions fetched each cycle (Total)
system.cpu00.fetch.rateDist::overflows              0      0.00%    100.00% # Number of instructions fetched each cycle (Total)
system.cpu00.fetch.rateDist::min_value              0                       # Number of instructions fetched each cycle (Total)
system.cpu00.fetch.rateDist::max_value              8                       # Number of instructions fetched each cycle (Total)
system.cpu00.fetch.rateDist::total             823405                       # Number of instructions fetched each cycle (Total)
system.cpu00.fetch.branchRate                0.128250                       # Number of branch fetches per cycle
system.cpu00.fetch.rate                      1.152194                       # Number of inst fetches per cycle
system.cpu00.decode.IdleCycles                  90188                       # Number of cycles decode is idle
system.cpu00.decode.BlockedCycles              566219                       # Number of cycles decode is blocked
system.cpu00.decode.RunCycles                  129016                       # Number of cycles decode is running
system.cpu00.decode.UnblockCycles               33346                       # Number of cycles decode is unblocking
system.cpu00.decode.SquashCycles                 4636                       # Number of cycles decode is squashing
system.cpu00.decode.BranchResolved              26392                       # Number of times decode resolved a branch
system.cpu00.decode.BranchMispred                1764                       # Number of times decode detected a branch misprediction
system.cpu00.decode.DecodedInsts              1123248                       # Number of instructions handled by decode
system.cpu00.decode.SquashedInsts                7264                       # Number of squashed instructions handled by decode
system.cpu00.rename.SquashCycles                 4636                       # Number of cycles rename is squashing
system.cpu00.rename.IdleCycles                 106027                       # Number of cycles rename is idle
system.cpu00.rename.BlockCycles                 90328                       # Number of cycles rename is blocking
system.cpu00.rename.serializeStallCycles       220871                       # count of cycles rename stalled for serializing inst
system.cpu00.rename.RunCycles                  146639                       # Number of cycles rename is running
system.cpu00.rename.UnblockCycles              254904                       # Number of cycles rename is unblocking
system.cpu00.rename.RenamedInsts              1104294                       # Number of instructions processed by rename
system.cpu00.rename.ROBFullEvents                2794                       # Number of times rename has blocked due to ROB full
system.cpu00.rename.IQFullEvents                22647                       # Number of times rename has blocked due to IQ full
system.cpu00.rename.LQFullEvents                 2201                       # Number of times rename has blocked due to LQ full
system.cpu00.rename.SQFullEvents               219576                       # Number of times rename has blocked due to SQ full
system.cpu00.rename.RenamedOperands            757041                       # Number of destination operands rename has renamed
system.cpu00.rename.RenameLookups             1367784                       # Number of register rename lookups that rename has made
system.cpu00.rename.int_rename_lookups        1209653                       # Number of integer rename lookups
system.cpu00.rename.fp_rename_lookups          155844                       # Number of floating rename lookups
system.cpu00.rename.CommittedMaps              668747                       # Number of HB maps that are committed
system.cpu00.rename.UndoneMaps                  88294                       # Number of HB maps that are undone due to squashing
system.cpu00.rename.serializingInsts             4047                       # count of serializing insts renamed
system.cpu00.rename.tempSerializingInsts         1669                       # count of temporary serializing insts renamed
system.cpu00.rename.skidInsts                  149137                       # count of insts added to the skid buffer
system.cpu00.memDep0.insertedLoads             179480                       # Number of loads inserted to the mem dependence unit.
system.cpu00.memDep0.insertedStores            135266                       # Number of stores inserted to the mem dependence unit.
system.cpu00.memDep0.conflictingLoads           32028                       # Number of conflicting loads.
system.cpu00.memDep0.conflictingStores          12294                       # Number of conflicting stores.
system.cpu00.iq.iqInstsAdded                   967808                       # Number of instructions added to the IQ (excludes non-spec)
system.cpu00.iq.iqNonSpecInstsAdded              2733                       # Number of non-speculative instructions added to the IQ
system.cpu00.iq.iqInstsIssued                  952434                       # Number of instructions issued
system.cpu00.iq.iqSquashedInstsIssued            1692                       # Number of squashed instructions issued
system.cpu00.iq.iqSquashedInstsExamined        100775                       # Number of squashed instructions iterated over during squash; mainly for profiling
system.cpu00.iq.iqSquashedOperandsExamined        51129                       # Number of squashed operands that are examined and possibly removed from graph
system.cpu00.iq.iqSquashedNonSpecRemoved          365                       # Number of squashed non-spec instructions that were removed
system.cpu00.iq.issued_per_cycle::samples       823405                       # Number of insts issued each cycle
system.cpu00.iq.issued_per_cycle::mean       1.156702                       # Number of insts issued each cycle
system.cpu00.iq.issued_per_cycle::stdev      1.926054                       # Number of insts issued each cycle
system.cpu00.iq.issued_per_cycle::underflows            0      0.00%      0.00% # Number of insts issued each cycle
system.cpu00.iq.issued_per_cycle::0            524471     63.70%     63.70% # Number of insts issued each cycle
system.cpu00.iq.issued_per_cycle::1             74364      9.03%     72.73% # Number of insts issued each cycle
system.cpu00.iq.issued_per_cycle::2             60888      7.39%     80.12% # Number of insts issued each cycle
system.cpu00.iq.issued_per_cycle::3             45504      5.53%     85.65% # Number of insts issued each cycle
system.cpu00.iq.issued_per_cycle::4             43773      5.32%     90.96% # Number of insts issued each cycle
system.cpu00.iq.issued_per_cycle::5             28565      3.47%     94.43% # Number of insts issued each cycle
system.cpu00.iq.issued_per_cycle::6             26685      3.24%     97.67% # Number of insts issued each cycle
system.cpu00.iq.issued_per_cycle::7             11485      1.39%     99.07% # Number of insts issued each cycle
system.cpu00.iq.issued_per_cycle::8              7670      0.93%    100.00% # Number of insts issued each cycle
system.cpu00.iq.issued_per_cycle::overflows            0      0.00%    100.00% # Number of insts issued each cycle
system.cpu00.iq.issued_per_cycle::min_value            0                       # Number of insts issued each cycle
system.cpu00.iq.issued_per_cycle::max_value            8                       # Number of insts issued each cycle
system.cpu00.iq.issued_per_cycle::total        823405                       # Number of insts issued each cycle
system.cpu00.iq.fu_full::No_OpClass                 0      0.00%      0.00% # attempts to use FU when none available
system.cpu00.iq.fu_full::IntAlu                  4956     15.98%     15.98% # attempts to use FU when none available
system.cpu00.iq.fu_full::IntMult                 4097     13.21%     29.18% # attempts to use FU when none available
system.cpu00.iq.fu_full::IntDiv                     0      0.00%     29.18% # attempts to use FU when none available
system.cpu00.iq.fu_full::FloatAdd                  79      0.25%     29.44% # attempts to use FU when none available
system.cpu00.iq.fu_full::FloatCmp                   0      0.00%     29.44% # attempts to use FU when none available
system.cpu00.iq.fu_full::FloatCvt                   0      0.00%     29.44% # attempts to use FU when none available
system.cpu00.iq.fu_full::FloatMult               5855     18.87%     48.31% # attempts to use FU when none available
system.cpu00.iq.fu_full::FloatDiv                   0      0.00%     48.31% # attempts to use FU when none available
system.cpu00.iq.fu_full::FloatSqrt                  0      0.00%     48.31% # attempts to use FU when none available
system.cpu00.iq.fu_full::SimdAdd                    0      0.00%     48.31% # attempts to use FU when none available
system.cpu00.iq.fu_full::SimdAddAcc                 0      0.00%     48.31% # attempts to use FU when none available
system.cpu00.iq.fu_full::SimdAlu                    0      0.00%     48.31% # attempts to use FU when none available
system.cpu00.iq.fu_full::SimdCmp                    0      0.00%     48.31% # attempts to use FU when none available
system.cpu00.iq.fu_full::SimdCvt                    0      0.00%     48.31% # attempts to use FU when none available
system.cpu00.iq.fu_full::SimdMisc                   0      0.00%     48.31% # attempts to use FU when none available
system.cpu00.iq.fu_full::SimdMult                   0      0.00%     48.31% # attempts to use FU when none available
system.cpu00.iq.fu_full::SimdMultAcc                0      0.00%     48.31% # attempts to use FU when none available
system.cpu00.iq.fu_full::SimdShift                  0      0.00%     48.31% # attempts to use FU when none available
system.cpu00.iq.fu_full::SimdShiftAcc               0      0.00%     48.31% # attempts to use FU when none available
system.cpu00.iq.fu_full::SimdSqrt                   0      0.00%     48.31% # attempts to use FU when none available
system.cpu00.iq.fu_full::SimdFloatAdd               0      0.00%     48.31% # attempts to use FU when none available
system.cpu00.iq.fu_full::SimdFloatAlu               0      0.00%     48.31% # attempts to use FU when none available
system.cpu00.iq.fu_full::SimdFloatCmp               0      0.00%     48.31% # attempts to use FU when none available
system.cpu00.iq.fu_full::SimdFloatCvt               0      0.00%     48.31% # attempts to use FU when none available
system.cpu00.iq.fu_full::SimdFloatDiv               0      0.00%     48.31% # attempts to use FU when none available
system.cpu00.iq.fu_full::SimdFloatMisc              0      0.00%     48.31% # attempts to use FU when none available
system.cpu00.iq.fu_full::SimdFloatMult              0      0.00%     48.31% # attempts to use FU when none available
system.cpu00.iq.fu_full::SimdFloatMultAcc            0      0.00%     48.31% # attempts to use FU when none available
system.cpu00.iq.fu_full::SimdFloatSqrt              0      0.00%     48.31% # attempts to use FU when none available
system.cpu00.iq.fu_full::MemRead                 9795     31.57%     79.88% # attempts to use FU when none available
system.cpu00.iq.fu_full::MemWrite                6241     20.12%    100.00% # attempts to use FU when none available
system.cpu00.iq.fu_full::IprAccess                  0      0.00%    100.00% # attempts to use FU when none available
system.cpu00.iq.fu_full::InstPrefetch               0      0.00%    100.00% # attempts to use FU when none available
system.cpu00.iq.FU_type_0::No_OpClass               0      0.00%      0.00% # Type of FU issued
system.cpu00.iq.FU_type_0::IntAlu              550507     57.80%     57.80% # Type of FU issued
system.cpu00.iq.FU_type_0::IntMult              12789      1.34%     59.14% # Type of FU issued
system.cpu00.iq.FU_type_0::IntDiv                   0      0.00%     59.14% # Type of FU issued
system.cpu00.iq.FU_type_0::FloatAdd             35719      3.75%     62.89% # Type of FU issued
system.cpu00.iq.FU_type_0::FloatCmp                 8      0.00%     62.89% # Type of FU issued
system.cpu00.iq.FU_type_0::FloatCvt                 0      0.00%     62.89% # Type of FU issued
system.cpu00.iq.FU_type_0::FloatMult            37110      3.90%     66.79% # Type of FU issued
system.cpu00.iq.FU_type_0::FloatDiv                16      0.00%     66.79% # Type of FU issued
system.cpu00.iq.FU_type_0::FloatSqrt                0      0.00%     66.79% # Type of FU issued
system.cpu00.iq.FU_type_0::SimdAdd                  0      0.00%     66.79% # Type of FU issued
system.cpu00.iq.FU_type_0::SimdAddAcc               0      0.00%     66.79% # Type of FU issued
system.cpu00.iq.FU_type_0::SimdAlu                  0      0.00%     66.79% # Type of FU issued
system.cpu00.iq.FU_type_0::SimdCmp                  0      0.00%     66.79% # Type of FU issued
system.cpu00.iq.FU_type_0::SimdCvt                  0      0.00%     66.79% # Type of FU issued
system.cpu00.iq.FU_type_0::SimdMisc                 0      0.00%     66.79% # Type of FU issued
system.cpu00.iq.FU_type_0::SimdMult                 0      0.00%     66.79% # Type of FU issued
system.cpu00.iq.FU_type_0::SimdMultAcc              0      0.00%     66.79% # Type of FU issued
system.cpu00.iq.FU_type_0::SimdShift                0      0.00%     66.79% # Type of FU issued
system.cpu00.iq.FU_type_0::SimdShiftAcc             0      0.00%     66.79% # Type of FU issued
system.cpu00.iq.FU_type_0::SimdSqrt                 0      0.00%     66.79% # Type of FU issued
system.cpu00.iq.FU_type_0::SimdFloatAdd             0      0.00%     66.79% # Type of FU issued
system.cpu00.iq.FU_type_0::SimdFloatAlu             0      0.00%     66.79% # Type of FU issued
system.cpu00.iq.FU_type_0::SimdFloatCmp             0      0.00%     66.79% # Type of FU issued
system.cpu00.iq.FU_type_0::SimdFloatCvt             0      0.00%     66.79% # Type of FU issued
system.cpu00.iq.FU_type_0::SimdFloatDiv             0      0.00%     66.79% # Type of FU issued
system.cpu00.iq.FU_type_0::SimdFloatMisc            0      0.00%     66.79% # Type of FU issued
system.cpu00.iq.FU_type_0::SimdFloatMult            0      0.00%     66.79% # Type of FU issued
system.cpu00.iq.FU_type_0::SimdFloatMultAcc            0      0.00%     66.79% # Type of FU issued
system.cpu00.iq.FU_type_0::SimdFloatSqrt            0      0.00%     66.79% # Type of FU issued
system.cpu00.iq.FU_type_0::MemRead             185891     19.52%     86.31% # Type of FU issued
system.cpu00.iq.FU_type_0::MemWrite            130394     13.69%    100.00% # Type of FU issued
system.cpu00.iq.FU_type_0::IprAccess                0      0.00%    100.00% # Type of FU issued
system.cpu00.iq.FU_type_0::InstPrefetch             0      0.00%    100.00% # Type of FU issued
system.cpu00.iq.FU_type_0::total               952434                       # Type of FU issued
system.cpu00.iq.rate                         0.923786                       # Inst issue rate
system.cpu00.iq.fu_busy_cnt                     31023                       # FU busy when requested
system.cpu00.iq.fu_busy_rate                 0.032572                       # FU busy rate (busy events/executed inst)
system.cpu00.iq.int_inst_queue_reads          2517520                       # Number of integer instruction queue reads
system.cpu00.iq.int_inst_queue_writes          948348                       # Number of integer instruction queue writes
system.cpu00.iq.int_inst_queue_wakeup_accesses       813050                       # Number of integer instruction queue wakeup accesses
system.cpu00.iq.fp_inst_queue_reads            243468                       # Number of floating instruction queue reads
system.cpu00.iq.fp_inst_queue_writes           123390                       # Number of floating instruction queue writes
system.cpu00.iq.fp_inst_queue_wakeup_accesses       116996                       # Number of floating instruction queue wakeup accesses
system.cpu00.iq.int_alu_accesses               858403                       # Number of integer alu accesses
system.cpu00.iq.fp_alu_accesses                125054                       # Number of floating point alu accesses
system.cpu00.iew.lsq.thread0.forwLoads          21322                       # Number of loads that had data forwarded from stores
system.cpu00.iew.lsq.thread0.invAddrLoads            0                       # Number of loads ignored due to an invalid address
system.cpu00.iew.lsq.thread0.squashedLoads        18537                       # Number of loads squashed
system.cpu00.iew.lsq.thread0.ignoredResponses          102                       # Number of memory responses ignored because the instruction is squashed
system.cpu00.iew.lsq.thread0.memOrderViolation          432                       # Number of memory ordering violations
system.cpu00.iew.lsq.thread0.squashedStores        15751                       # Number of stores squashed
system.cpu00.iew.lsq.thread0.invAddrSwpfs            0                       # Number of software prefetches ignored due to an invalid address
system.cpu00.iew.lsq.thread0.blockedLoads            0                       # Number of blocked loads due to partial load-store forwarding
system.cpu00.iew.lsq.thread0.rescheduledLoads          217                       # Number of loads that were rescheduled
system.cpu00.iew.lsq.thread0.cacheBlocked        11275                       # Number of times an access to memory failed due to the cache being blocked
system.cpu00.iew.iewIdleCycles                      0                       # Number of cycles IEW is idle
system.cpu00.iew.iewSquashCycles                 4636                       # Number of cycles IEW is squashing
system.cpu00.iew.iewBlockCycles                 22812                       # Number of cycles IEW is blocking
system.cpu00.iew.iewUnblockCycles               58903                       # Number of cycles IEW is unblocking
system.cpu00.iew.iewDispatchedInsts           1078050                       # Number of instructions dispatched to IQ
system.cpu00.iew.iewDispSquashedInsts            1457                       # Number of squashed instructions skipped by dispatch
system.cpu00.iew.iewDispLoadInsts              179480                       # Number of dispatched load instructions
system.cpu00.iew.iewDispStoreInsts             135266                       # Number of dispatched store instructions
system.cpu00.iew.iewDispNonSpecInsts             1570                       # Number of dispatched non-speculative instructions
system.cpu00.iew.iewIQFullEvents                  134                       # Number of times the IQ has become full, causing a stall
system.cpu00.iew.iewLSQFullEvents               58660                       # Number of times the LSQ has become full, causing a stall
system.cpu00.iew.memOrderViolationEvents          432                       # Number of memory order violations
system.cpu00.iew.predictedTakenIncorrect         1586                       # Number of branches that were predicted taken incorrectly
system.cpu00.iew.predictedNotTakenIncorrect         3102                       # Number of branches that were predicted not taken incorrectly
system.cpu00.iew.branchMispredicts               4688                       # Number of branch mispredicts detected at execute
system.cpu00.iew.iewExecutedInsts              945007                       # Number of executed instructions
system.cpu00.iew.iewExecLoadInsts              182667                       # Number of load instructions executed
system.cpu00.iew.iewExecSquashedInsts            7427                       # Number of squashed instructions skipped in execute
system.cpu00.iew.exec_swp                           0                       # number of swp insts executed
system.cpu00.iew.exec_nop                      107509                       # number of nop insts executed
system.cpu00.iew.exec_refs                     311574                       # number of memory reference insts executed
system.cpu00.iew.exec_branches                 110256                       # Number of branches executed
system.cpu00.iew.exec_stores                   128907                       # Number of stores executed
system.cpu00.iew.exec_rate                   0.916582                       # Inst execution rate
system.cpu00.iew.wb_sent                       933580                       # cumulative count of insts sent to commit
system.cpu00.iew.wb_count                      930046                       # cumulative count of insts written-back
system.cpu00.iew.wb_producers                  545264                       # num instructions producing a value
system.cpu00.iew.wb_consumers                  776975                       # num instructions consuming a value
system.cpu00.iew.wb_rate                     0.902071                       # insts written-back per cycle
system.cpu00.iew.wb_fanout                   0.701778                       # average fanout of values written-back
system.cpu00.commit.commitSquashedInsts        105061                       # The number of squashed insts skipped by commit
system.cpu00.commit.commitNonSpecStalls          2368                       # The number of times commit has been forced to stall to communicate backwards
system.cpu00.commit.branchMispredicts            3949                       # The number of times a branch was mispredicted
system.cpu00.commit.committed_per_cycle::samples       806850                       # Number of insts commited each cycle
system.cpu00.commit.committed_per_cycle::mean     1.200180                       # Number of insts commited each cycle
system.cpu00.commit.committed_per_cycle::stdev     2.301903                       # Number of insts commited each cycle
system.cpu00.commit.committed_per_cycle::underflows            0      0.00%      0.00% # Number of insts commited each cycle
system.cpu00.commit.committed_per_cycle::0       558946     69.28%     69.28% # Number of insts commited each cycle
system.cpu00.commit.committed_per_cycle::1        51503      6.38%     75.66% # Number of insts commited each cycle
system.cpu00.commit.committed_per_cycle::2        50990      6.32%     81.98% # Number of insts commited each cycle
system.cpu00.commit.committed_per_cycle::3        29956      3.71%     85.69% # Number of insts commited each cycle
system.cpu00.commit.committed_per_cycle::4        35285      4.37%     90.06% # Number of insts commited each cycle
system.cpu00.commit.committed_per_cycle::5         8930      1.11%     91.17% # Number of insts commited each cycle
system.cpu00.commit.committed_per_cycle::6        12857      1.59%     92.76% # Number of insts commited each cycle
system.cpu00.commit.committed_per_cycle::7         4982      0.62%     93.38% # Number of insts commited each cycle
system.cpu00.commit.committed_per_cycle::8        53401      6.62%    100.00% # Number of insts commited each cycle
system.cpu00.commit.committed_per_cycle::overflows            0      0.00%    100.00% # Number of insts commited each cycle
system.cpu00.commit.committed_per_cycle::min_value            0                       # Number of insts commited each cycle
system.cpu00.commit.committed_per_cycle::max_value            8                       # Number of insts commited each cycle
system.cpu00.commit.committed_per_cycle::total       806850                       # Number of insts commited each cycle
system.cpu00.commit.committedInsts             968365                       # Number of instructions committed
system.cpu00.commit.committedOps               968365                       # Number of ops (including micro ops) committed
system.cpu00.commit.swp_count                       0                       # Number of s/w prefetches committed
system.cpu00.commit.refs                       280458                       # Number of memory references committed
system.cpu00.commit.loads                      160943                       # Number of loads committed
system.cpu00.commit.membars                      1032                       # Number of memory barriers committed
system.cpu00.commit.branches                   100080                       # Number of branches committed
system.cpu00.commit.fp_insts                   116058                       # Number of committed floating point instructions.
system.cpu00.commit.int_insts                  791899                       # Number of committed integer instructions.
system.cpu00.commit.function_calls              22214                       # Number of function calls committed.
system.cpu00.commit.op_class_0::No_OpClass        98600     10.18%     10.18% # Class of committed instruction
system.cpu00.commit.op_class_0::IntAlu         503148     51.96%     62.14% # Class of committed instruction
system.cpu00.commit.op_class_0::IntMult         12689      1.31%     63.45% # Class of committed instruction
system.cpu00.commit.op_class_0::IntDiv              0      0.00%     63.45% # Class of committed instruction
system.cpu00.commit.op_class_0::FloatAdd        35480      3.66%     67.11% # Class of committed instruction
system.cpu00.commit.op_class_0::FloatCmp            8      0.00%     67.12% # Class of committed instruction
system.cpu00.commit.op_class_0::FloatCvt            0      0.00%     67.12% # Class of committed instruction
system.cpu00.commit.op_class_0::FloatMult        36935      3.81%     70.93% # Class of committed instruction
system.cpu00.commit.op_class_0::FloatDiv           14      0.00%     70.93% # Class of committed instruction
system.cpu00.commit.op_class_0::FloatSqrt            0      0.00%     70.93% # Class of committed instruction
system.cpu00.commit.op_class_0::SimdAdd             0      0.00%     70.93% # Class of committed instruction
system.cpu00.commit.op_class_0::SimdAddAcc            0      0.00%     70.93% # Class of committed instruction
system.cpu00.commit.op_class_0::SimdAlu             0      0.00%     70.93% # Class of committed instruction
system.cpu00.commit.op_class_0::SimdCmp             0      0.00%     70.93% # Class of committed instruction
system.cpu00.commit.op_class_0::SimdCvt             0      0.00%     70.93% # Class of committed instruction
system.cpu00.commit.op_class_0::SimdMisc            0      0.00%     70.93% # Class of committed instruction
system.cpu00.commit.op_class_0::SimdMult            0      0.00%     70.93% # Class of committed instruction
system.cpu00.commit.op_class_0::SimdMultAcc            0      0.00%     70.93% # Class of committed instruction
system.cpu00.commit.op_class_0::SimdShift            0      0.00%     70.93% # Class of committed instruction
system.cpu00.commit.op_class_0::SimdShiftAcc            0      0.00%     70.93% # Class of committed instruction
system.cpu00.commit.op_class_0::SimdSqrt            0      0.00%     70.93% # Class of committed instruction
system.cpu00.commit.op_class_0::SimdFloatAdd            0      0.00%     70.93% # Class of committed instruction
system.cpu00.commit.op_class_0::SimdFloatAlu            0      0.00%     70.93% # Class of committed instruction
system.cpu00.commit.op_class_0::SimdFloatCmp            0      0.00%     70.93% # Class of committed instruction
system.cpu00.commit.op_class_0::SimdFloatCvt            0      0.00%     70.93% # Class of committed instruction
system.cpu00.commit.op_class_0::SimdFloatDiv            0      0.00%     70.93% # Class of committed instruction
system.cpu00.commit.op_class_0::SimdFloatMisc            0      0.00%     70.93% # Class of committed instruction
system.cpu00.commit.op_class_0::SimdFloatMult            0      0.00%     70.93% # Class of committed instruction
system.cpu00.commit.op_class_0::SimdFloatMultAcc            0      0.00%     70.93% # Class of committed instruction
system.cpu00.commit.op_class_0::SimdFloatSqrt            0      0.00%     70.93% # Class of committed instruction
system.cpu00.commit.op_class_0::MemRead        161975     16.73%     87.66% # Class of committed instruction
system.cpu00.commit.op_class_0::MemWrite       119516     12.34%    100.00% # Class of committed instruction
system.cpu00.commit.op_class_0::IprAccess            0      0.00%    100.00% # Class of committed instruction
system.cpu00.commit.op_class_0::InstPrefetch            0      0.00%    100.00% # Class of committed instruction
system.cpu00.commit.op_class_0::total          968365                       # Class of committed instruction
system.cpu00.commit.bw_lim_events               53401                       # number cycles where commit BW limit reached
system.cpu00.rob.rob_reads                    1822884                       # The number of ROB reads
system.cpu00.rob.rob_writes                   2163550                       # The number of ROB writes
system.cpu00.timesIdled                          1454                       # Number of times that the entire CPU went into an idle state and unscheduled itself
system.cpu00.idleCycles                        207607                       # Total number of cycles that the CPU has spent unscheduled due to idling
system.cpu00.quiesceCycles                      69458                       # Total number of cycles that CPU has spent quiesced or waiting for an interrupt
system.cpu00.committedInsts                    869765                       # Number of Instructions Simulated
system.cpu00.committedOps                      869765                       # Number of Ops (including micro ops) Simulated
system.cpu00.cpi                             1.185391                       # CPI: Cycles Per Instruction
system.cpu00.cpi_total                       1.185391                       # CPI: Total CPI of All Threads
system.cpu00.ipc                             0.843603                       # IPC: Instructions Per Cycle
system.cpu00.ipc_total                       0.843603                       # IPC: Total IPC of All Threads
system.cpu00.int_regfile_reads                1141279                       # number of integer regfile reads
system.cpu00.int_regfile_writes                612153                       # number of integer regfile writes
system.cpu00.fp_regfile_reads                  151828                       # number of floating regfile reads
system.cpu00.fp_regfile_writes                 102916                       # number of floating regfile writes
system.cpu00.misc_regfile_reads                  4727                       # number of misc regfile reads
system.cpu00.misc_regfile_writes                 2248                       # number of misc regfile writes
system.cpu00.dcache.tags.replacements           14920                       # number of replacements
system.cpu00.dcache.tags.tagsinuse          63.094726                       # Cycle average of tags in use
system.cpu00.dcache.tags.total_refs            224025                       # Total number of references to valid blocks.
system.cpu00.dcache.tags.sampled_refs           14984                       # Sample count of references to valid blocks.
system.cpu00.dcache.tags.avg_refs           14.950948                       # Average number of references to valid blocks.
system.cpu00.dcache.tags.warmup_cycle        26575870                       # Cycle when the warmup percentage was hit.
system.cpu00.dcache.tags.occ_blocks::cpu00.data    63.094726                       # Average occupied blocks per requestor
system.cpu00.dcache.tags.occ_percent::cpu00.data     0.985855                       # Average percentage of cache occupancy
system.cpu00.dcache.tags.occ_percent::total     0.985855                       # Average percentage of cache occupancy
system.cpu00.dcache.tags.occ_task_id_blocks::1024           64                       # Occupied blocks per task id
system.cpu00.dcache.tags.age_task_id_blocks_1024::0           58                       # Occupied blocks per task id
system.cpu00.dcache.tags.age_task_id_blocks_1024::1            6                       # Occupied blocks per task id
system.cpu00.dcache.tags.occ_task_id_percent::1024            1                       # Percentage of cache occupancy per task id
system.cpu00.dcache.tags.tag_accesses         1099052                       # Number of tag accesses
system.cpu00.dcache.tags.data_accesses        1099052                       # Number of data accesses
system.cpu00.dcache.ReadReq_hits::cpu00.data       138808                       # number of ReadReq hits
system.cpu00.dcache.ReadReq_hits::total        138808                       # number of ReadReq hits
system.cpu00.dcache.WriteReq_hits::cpu00.data        83119                       # number of WriteReq hits
system.cpu00.dcache.WriteReq_hits::total        83119                       # number of WriteReq hits
system.cpu00.dcache.LoadLockedReq_hits::cpu00.data          881                       # number of LoadLockedReq hits
system.cpu00.dcache.LoadLockedReq_hits::total          881                       # number of LoadLockedReq hits
system.cpu00.dcache.StoreCondReq_hits::cpu00.data         1102                       # number of StoreCondReq hits
system.cpu00.dcache.StoreCondReq_hits::total         1102                       # number of StoreCondReq hits
system.cpu00.dcache.demand_hits::cpu00.data       221927                       # number of demand (read+write) hits
system.cpu00.dcache.demand_hits::total         221927                       # number of demand (read+write) hits
system.cpu00.dcache.overall_hits::cpu00.data       221927                       # number of overall hits
system.cpu00.dcache.overall_hits::total        221927                       # number of overall hits
system.cpu00.dcache.ReadReq_misses::cpu00.data        11482                       # number of ReadReq misses
system.cpu00.dcache.ReadReq_misses::total        11482                       # number of ReadReq misses
system.cpu00.dcache.WriteReq_misses::cpu00.data        35275                       # number of WriteReq misses
system.cpu00.dcache.WriteReq_misses::total        35275                       # number of WriteReq misses
system.cpu00.dcache.LoadLockedReq_misses::cpu00.data          303                       # number of LoadLockedReq misses
system.cpu00.dcache.LoadLockedReq_misses::total          303                       # number of LoadLockedReq misses
system.cpu00.dcache.StoreCondReq_misses::cpu00.data           19                       # number of StoreCondReq misses
system.cpu00.dcache.StoreCondReq_misses::total           19                       # number of StoreCondReq misses
system.cpu00.dcache.demand_misses::cpu00.data        46757                       # number of demand (read+write) misses
system.cpu00.dcache.demand_misses::total        46757                       # number of demand (read+write) misses
system.cpu00.dcache.overall_misses::cpu00.data        46757                       # number of overall misses
system.cpu00.dcache.overall_misses::total        46757                       # number of overall misses
system.cpu00.dcache.ReadReq_miss_latency::cpu00.data    461182326                       # number of ReadReq miss cycles
system.cpu00.dcache.ReadReq_miss_latency::total    461182326                       # number of ReadReq miss cycles
system.cpu00.dcache.WriteReq_miss_latency::cpu00.data   5442822062                       # number of WriteReq miss cycles
system.cpu00.dcache.WriteReq_miss_latency::total   5442822062                       # number of WriteReq miss cycles
system.cpu00.dcache.LoadLockedReq_miss_latency::cpu00.data      3063237                       # number of LoadLockedReq miss cycles
system.cpu00.dcache.LoadLockedReq_miss_latency::total      3063237                       # number of LoadLockedReq miss cycles
system.cpu00.dcache.StoreCondReq_miss_latency::cpu00.data       373198                       # number of StoreCondReq miss cycles
system.cpu00.dcache.StoreCondReq_miss_latency::total       373198                       # number of StoreCondReq miss cycles
system.cpu00.dcache.demand_miss_latency::cpu00.data   5904004388                       # number of demand (read+write) miss cycles
system.cpu00.dcache.demand_miss_latency::total   5904004388                       # number of demand (read+write) miss cycles
system.cpu00.dcache.overall_miss_latency::cpu00.data   5904004388                       # number of overall miss cycles
system.cpu00.dcache.overall_miss_latency::total   5904004388                       # number of overall miss cycles
system.cpu00.dcache.ReadReq_accesses::cpu00.data       150290                       # number of ReadReq accesses(hits+misses)
system.cpu00.dcache.ReadReq_accesses::total       150290                       # number of ReadReq accesses(hits+misses)
system.cpu00.dcache.WriteReq_accesses::cpu00.data       118394                       # number of WriteReq accesses(hits+misses)
system.cpu00.dcache.WriteReq_accesses::total       118394                       # number of WriteReq accesses(hits+misses)
system.cpu00.dcache.LoadLockedReq_accesses::cpu00.data         1184                       # number of LoadLockedReq accesses(hits+misses)
system.cpu00.dcache.LoadLockedReq_accesses::total         1184                       # number of LoadLockedReq accesses(hits+misses)
system.cpu00.dcache.StoreCondReq_accesses::cpu00.data         1121                       # number of StoreCondReq accesses(hits+misses)
system.cpu00.dcache.StoreCondReq_accesses::total         1121                       # number of StoreCondReq accesses(hits+misses)
system.cpu00.dcache.demand_accesses::cpu00.data       268684                       # number of demand (read+write) accesses
system.cpu00.dcache.demand_accesses::total       268684                       # number of demand (read+write) accesses
system.cpu00.dcache.overall_accesses::cpu00.data       268684                       # number of overall (read+write) accesses
system.cpu00.dcache.overall_accesses::total       268684                       # number of overall (read+write) accesses
system.cpu00.dcache.ReadReq_miss_rate::cpu00.data     0.076399                       # miss rate for ReadReq accesses
system.cpu00.dcache.ReadReq_miss_rate::total     0.076399                       # miss rate for ReadReq accesses
system.cpu00.dcache.WriteReq_miss_rate::cpu00.data     0.297946                       # miss rate for WriteReq accesses
system.cpu00.dcache.WriteReq_miss_rate::total     0.297946                       # miss rate for WriteReq accesses
system.cpu00.dcache.LoadLockedReq_miss_rate::cpu00.data     0.255912                       # miss rate for LoadLockedReq accesses
system.cpu00.dcache.LoadLockedReq_miss_rate::total     0.255912                       # miss rate for LoadLockedReq accesses
system.cpu00.dcache.StoreCondReq_miss_rate::cpu00.data     0.016949                       # miss rate for StoreCondReq accesses
system.cpu00.dcache.StoreCondReq_miss_rate::total     0.016949                       # miss rate for StoreCondReq accesses
system.cpu00.dcache.demand_miss_rate::cpu00.data     0.174022                       # miss rate for demand accesses
system.cpu00.dcache.demand_miss_rate::total     0.174022                       # miss rate for demand accesses
system.cpu00.dcache.overall_miss_rate::cpu00.data     0.174022                       # miss rate for overall accesses
system.cpu00.dcache.overall_miss_rate::total     0.174022                       # miss rate for overall accesses
system.cpu00.dcache.ReadReq_avg_miss_latency::cpu00.data 40165.678976                       # average ReadReq miss latency
system.cpu00.dcache.ReadReq_avg_miss_latency::total 40165.678976                       # average ReadReq miss latency
system.cpu00.dcache.WriteReq_avg_miss_latency::cpu00.data 154296.869227                       # average WriteReq miss latency
system.cpu00.dcache.WriteReq_avg_miss_latency::total 154296.869227                       # average WriteReq miss latency
system.cpu00.dcache.LoadLockedReq_avg_miss_latency::cpu00.data 10109.693069                       # average LoadLockedReq miss latency
system.cpu00.dcache.LoadLockedReq_avg_miss_latency::total 10109.693069                       # average LoadLockedReq miss latency
system.cpu00.dcache.StoreCondReq_avg_miss_latency::cpu00.data        19642                       # average StoreCondReq miss latency
system.cpu00.dcache.StoreCondReq_avg_miss_latency::total        19642                       # average StoreCondReq miss latency
system.cpu00.dcache.demand_avg_miss_latency::cpu00.data 126269.957183                       # average overall miss latency
system.cpu00.dcache.demand_avg_miss_latency::total 126269.957183                       # average overall miss latency
system.cpu00.dcache.overall_avg_miss_latency::cpu00.data 126269.957183                       # average overall miss latency
system.cpu00.dcache.overall_avg_miss_latency::total 126269.957183                       # average overall miss latency
system.cpu00.dcache.blocked_cycles::no_mshrs       162289                       # number of cycles access was blocked
system.cpu00.dcache.blocked_cycles::no_targets            0                       # number of cycles access was blocked
system.cpu00.dcache.blocked::no_mshrs            3385                       # number of cycles access was blocked
system.cpu00.dcache.blocked::no_targets             0                       # number of cycles access was blocked
system.cpu00.dcache.avg_blocked_cycles::no_mshrs    47.943575                       # average number of cycles each access was blocked
system.cpu00.dcache.avg_blocked_cycles::no_targets          nan                       # average number of cycles each access was blocked
system.cpu00.dcache.fast_writes                     0                       # number of fast writes performed
system.cpu00.dcache.cache_copies                    0                       # number of cache copies performed
system.cpu00.dcache.writebacks::writebacks        10787                       # number of writebacks
system.cpu00.dcache.writebacks::total           10787                       # number of writebacks
system.cpu00.dcache.ReadReq_mshr_hits::cpu00.data         3615                       # number of ReadReq MSHR hits
system.cpu00.dcache.ReadReq_mshr_hits::total         3615                       # number of ReadReq MSHR hits
system.cpu00.dcache.WriteReq_mshr_hits::cpu00.data        28145                       # number of WriteReq MSHR hits
system.cpu00.dcache.WriteReq_mshr_hits::total        28145                       # number of WriteReq MSHR hits
system.cpu00.dcache.LoadLockedReq_mshr_hits::cpu00.data          134                       # number of LoadLockedReq MSHR hits
system.cpu00.dcache.LoadLockedReq_mshr_hits::total          134                       # number of LoadLockedReq MSHR hits
system.cpu00.dcache.demand_mshr_hits::cpu00.data        31760                       # number of demand (read+write) MSHR hits
system.cpu00.dcache.demand_mshr_hits::total        31760                       # number of demand (read+write) MSHR hits
system.cpu00.dcache.overall_mshr_hits::cpu00.data        31760                       # number of overall MSHR hits
system.cpu00.dcache.overall_mshr_hits::total        31760                       # number of overall MSHR hits
system.cpu00.dcache.ReadReq_mshr_misses::cpu00.data         7867                       # number of ReadReq MSHR misses
system.cpu00.dcache.ReadReq_mshr_misses::total         7867                       # number of ReadReq MSHR misses
system.cpu00.dcache.WriteReq_mshr_misses::cpu00.data         7130                       # number of WriteReq MSHR misses
system.cpu00.dcache.WriteReq_mshr_misses::total         7130                       # number of WriteReq MSHR misses
system.cpu00.dcache.LoadLockedReq_mshr_misses::cpu00.data          169                       # number of LoadLockedReq MSHR misses
system.cpu00.dcache.LoadLockedReq_mshr_misses::total          169                       # number of LoadLockedReq MSHR misses
system.cpu00.dcache.StoreCondReq_mshr_misses::cpu00.data           19                       # number of StoreCondReq MSHR misses
system.cpu00.dcache.StoreCondReq_mshr_misses::total           19                       # number of StoreCondReq MSHR misses
system.cpu00.dcache.demand_mshr_misses::cpu00.data        14997                       # number of demand (read+write) MSHR misses
system.cpu00.dcache.demand_mshr_misses::total        14997                       # number of demand (read+write) MSHR misses
system.cpu00.dcache.overall_mshr_misses::cpu00.data        14997                       # number of overall MSHR misses
system.cpu00.dcache.overall_mshr_misses::total        14997                       # number of overall MSHR misses
system.cpu00.dcache.ReadReq_mshr_miss_latency::cpu00.data    261403178                       # number of ReadReq MSHR miss cycles
system.cpu00.dcache.ReadReq_mshr_miss_latency::total    261403178                       # number of ReadReq MSHR miss cycles
system.cpu00.dcache.WriteReq_mshr_miss_latency::cpu00.data   1154113516                       # number of WriteReq MSHR miss cycles
system.cpu00.dcache.WriteReq_mshr_miss_latency::total   1154113516                       # number of WriteReq MSHR miss cycles
system.cpu00.dcache.LoadLockedReq_mshr_miss_latency::cpu00.data      1486997                       # number of LoadLockedReq MSHR miss cycles
system.cpu00.dcache.LoadLockedReq_mshr_miss_latency::total      1486997                       # number of LoadLockedReq MSHR miss cycles
system.cpu00.dcache.StoreCondReq_mshr_miss_latency::cpu00.data       351177                       # number of StoreCondReq MSHR miss cycles
system.cpu00.dcache.StoreCondReq_mshr_miss_latency::total       351177                       # number of StoreCondReq MSHR miss cycles
system.cpu00.dcache.demand_mshr_miss_latency::cpu00.data   1415516694                       # number of demand (read+write) MSHR miss cycles
system.cpu00.dcache.demand_mshr_miss_latency::total   1415516694                       # number of demand (read+write) MSHR miss cycles
system.cpu00.dcache.overall_mshr_miss_latency::cpu00.data   1415516694                       # number of overall MSHR miss cycles
system.cpu00.dcache.overall_mshr_miss_latency::total   1415516694                       # number of overall MSHR miss cycles
system.cpu00.dcache.ReadReq_mshr_miss_rate::cpu00.data     0.052345                       # mshr miss rate for ReadReq accesses
system.cpu00.dcache.ReadReq_mshr_miss_rate::total     0.052345                       # mshr miss rate for ReadReq accesses
system.cpu00.dcache.WriteReq_mshr_miss_rate::cpu00.data     0.060223                       # mshr miss rate for WriteReq accesses
system.cpu00.dcache.WriteReq_mshr_miss_rate::total     0.060223                       # mshr miss rate for WriteReq accesses
system.cpu00.dcache.LoadLockedReq_mshr_miss_rate::cpu00.data     0.142736                       # mshr miss rate for LoadLockedReq accesses
system.cpu00.dcache.LoadLockedReq_mshr_miss_rate::total     0.142736                       # mshr miss rate for LoadLockedReq accesses
system.cpu00.dcache.StoreCondReq_mshr_miss_rate::cpu00.data     0.016949                       # mshr miss rate for StoreCondReq accesses
system.cpu00.dcache.StoreCondReq_mshr_miss_rate::total     0.016949                       # mshr miss rate for StoreCondReq accesses
system.cpu00.dcache.demand_mshr_miss_rate::cpu00.data     0.055816                       # mshr miss rate for demand accesses
system.cpu00.dcache.demand_mshr_miss_rate::total     0.055816                       # mshr miss rate for demand accesses
system.cpu00.dcache.overall_mshr_miss_rate::cpu00.data     0.055816                       # mshr miss rate for overall accesses
system.cpu00.dcache.overall_mshr_miss_rate::total     0.055816                       # mshr miss rate for overall accesses
system.cpu00.dcache.ReadReq_avg_mshr_miss_latency::cpu00.data 33227.809584                       # average ReadReq mshr miss latency
system.cpu00.dcache.ReadReq_avg_mshr_miss_latency::total 33227.809584                       # average ReadReq mshr miss latency
system.cpu00.dcache.WriteReq_avg_mshr_miss_latency::cpu00.data 161867.253296                       # average WriteReq mshr miss latency
system.cpu00.dcache.WriteReq_avg_mshr_miss_latency::total 161867.253296                       # average WriteReq mshr miss latency
[...]
system.tol2bus.pkt_count_system.cpu06.dcache.mem_side::system.l2.cpu_side         1652                       # Packet count per connected master and slave (bytes)
system.tol2bus.pkt_count_system.cpu07.icache.mem_side::system.l2.cpu_side          925                       # Packet count per connected master and slave (bytes)
system.tol2bus.pkt_count_system.cpu07.dcache.mem_side::system.l2.cpu_side         1232                       # Packet count per connected master and slave (bytes)
system.tol2bus.pkt_count_system.cpu08.icache.mem_side::system.l2.cpu_side         1154                       # Packet count per connected master and slave (bytes)
system.tol2bus.pkt_count_system.cpu08.dcache.mem_side::system.l2.cpu_side         1276                       # Packet count per connected master and slave (bytes)
system.tol2bus.pkt_count_system.cpu09.icache.mem_side::system.l2.cpu_side         1230                       # Packet count per connected master and slave (bytes)
system.tol2bus.pkt_count_system.cpu09.dcache.mem_side::system.l2.cpu_side         1298                       # Packet count per connected master and slave (bytes)
system.tol2bus.pkt_count_system.cpu10.icache.mem_side::system.l2.cpu_side         2326                       # Packet count per connected master and slave (bytes)
system.tol2bus.pkt_count_system.cpu10.dcache.mem_side::system.l2.cpu_side         2665                       # Packet count per connected master and slave (bytes)
system.tol2bus.pkt_count_system.cpu11.icache.mem_side::system.l2.cpu_side         2662                       # Packet count per connected master and slave (bytes)
system.tol2bus.pkt_count_system.cpu11.dcache.mem_side::system.l2.cpu_side         3035                       # Packet count per connected master and slave (bytes)
system.tol2bus.pkt_count_system.cpu12.icache.mem_side::system.l2.cpu_side         1805                       # Packet count per connected master and slave (bytes)
system.tol2bus.pkt_count_system.cpu12.dcache.mem_side::system.l2.cpu_side         2636                       # Packet count per connected master and slave (bytes)
system.tol2bus.pkt_count_system.cpu13.icache.mem_side::system.l2.cpu_side         2756                       # Packet count per connected master and slave (bytes)
system.tol2bus.pkt_count_system.cpu13.dcache.mem_side::system.l2.cpu_side         3496                       # Packet count per connected master and slave (bytes)
system.tol2bus.pkt_count_system.cpu14.icache.mem_side::system.l2.cpu_side         1742                       # Packet count per connected master and slave (bytes)
system.tol2bus.pkt_count_system.cpu14.dcache.mem_side::system.l2.cpu_side         1982                       # Packet count per connected master and slave (bytes)
system.tol2bus.pkt_count_system.cpu15.icache.mem_side::system.l2.cpu_side         1008                       # Packet count per connected master and slave (bytes)
system.tol2bus.pkt_count_system.cpu15.dcache.mem_side::system.l2.cpu_side         1253                       # Packet count per connected master and slave (bytes)
system.tol2bus.pkt_count::total                132989                       # Packet count per connected master and slave (bytes)
system.tol2bus.pkt_size_system.cpu00.icache.mem_side::system.l2.cpu_side       978432                       # Cumulative packet size per connected master and slave (bytes)
system.tol2bus.pkt_size_system.cpu00.dcache.mem_side::system.l2.cpu_side      1638656                       # Cumulative packet size per connected master and slave (bytes)
system.tol2bus.pkt_size_system.cpu01.icache.mem_side::system.l2.cpu_side        94400                       # Cumulative packet size per connected master and slave (bytes)
system.tol2bus.pkt_size_system.cpu01.dcache.mem_side::system.l2.cpu_side        72000                       # Cumulative packet size per connected master and slave (bytes)
system.tol2bus.pkt_size_system.cpu02.icache.mem_side::system.l2.cpu_side        82048                       # Cumulative packet size per connected master and slave (bytes)
system.tol2bus.pkt_size_system.cpu02.dcache.mem_side::system.l2.cpu_side        66304                       # Cumulative packet size per connected master and slave (bytes)
system.tol2bus.pkt_size_system.cpu03.icache.mem_side::system.l2.cpu_side        68416                       # Cumulative packet size per connected master and slave (bytes)
system.tol2bus.pkt_size_system.cpu03.dcache.mem_side::system.l2.cpu_side        53376                       # Cumulative packet size per connected master and slave (bytes)
system.tol2bus.pkt_size_system.cpu04.icache.mem_side::system.l2.cpu_side       116736                       # Cumulative packet size per connected master and slave (bytes)
system.tol2bus.pkt_size_system.cpu04.dcache.mem_side::system.l2.cpu_side       100160                       # Cumulative packet size per connected master and slave (bytes)
system.tol2bus.pkt_size_system.cpu05.icache.mem_side::system.l2.cpu_side       106560                       # Cumulative packet size per connected master and slave (bytes)
system.tol2bus.pkt_size_system.cpu05.dcache.mem_side::system.l2.cpu_side        78528                       # Cumulative packet size per connected master and slave (bytes)
system.tol2bus.pkt_size_system.cpu06.icache.mem_side::system.l2.cpu_side        55232                       # Cumulative packet size per connected master and slave (bytes)
system.tol2bus.pkt_size_system.cpu06.dcache.mem_side::system.l2.cpu_side        47552                       # Cumulative packet size per connected master and slave (bytes)
system.tol2bus.pkt_size_system.cpu07.icache.mem_side::system.l2.cpu_side        31360                       # Cumulative packet size per connected master and slave (bytes)
system.tol2bus.pkt_size_system.cpu07.dcache.mem_side::system.l2.cpu_side        34368                       # Cumulative packet size per connected master and slave (bytes)
system.tol2bus.pkt_size_system.cpu08.icache.mem_side::system.l2.cpu_side        40512                       # Cumulative packet size per connected master and slave (bytes)
system.tol2bus.pkt_size_system.cpu08.dcache.mem_side::system.l2.cpu_side        36096                       # Cumulative packet size per connected master and slave (bytes)
system.tol2bus.pkt_size_system.cpu09.icache.mem_side::system.l2.cpu_side        43264                       # Cumulative packet size per connected master and slave (bytes)
system.tol2bus.pkt_size_system.cpu09.dcache.mem_side::system.l2.cpu_side        35712                       # Cumulative packet size per connected master and slave (bytes)
system.tol2bus.pkt_size_system.cpu10.icache.mem_side::system.l2.cpu_side        89152                       # Cumulative packet size per connected master and slave (bytes)
system.tol2bus.pkt_size_system.cpu10.dcache.mem_side::system.l2.cpu_side        65472                       # Cumulative packet size per connected master and slave (bytes)
system.tol2bus.pkt_size_system.cpu11.icache.mem_side::system.l2.cpu_side       103168                       # Cumulative packet size per connected master and slave (bytes)
system.tol2bus.pkt_size_system.cpu11.dcache.mem_side::system.l2.cpu_side        72768                       # Cumulative packet size per connected master and slave (bytes)
system.tol2bus.pkt_size_system.cpu12.icache.mem_side::system.l2.cpu_side        67200                       # Cumulative packet size per connected master and slave (bytes)
system.tol2bus.pkt_size_system.cpu12.dcache.mem_side::system.l2.cpu_side        62464                       # Cumulative packet size per connected master and slave (bytes)
system.tol2bus.pkt_size_system.cpu13.icache.mem_side::system.l2.cpu_side       107648                       # Cumulative packet size per connected master and slave (bytes)
system.tol2bus.pkt_size_system.cpu13.dcache.mem_side::system.l2.cpu_side        88064                       # Cumulative packet size per connected master and slave (bytes)
system.tol2bus.pkt_size_system.cpu14.icache.mem_side::system.l2.cpu_side        64512                       # Cumulative packet size per connected master and slave (bytes)
system.tol2bus.pkt_size_system.cpu14.dcache.mem_side::system.l2.cpu_side        50368                       # Cumulative packet size per connected master and slave (bytes)
system.tol2bus.pkt_size_system.cpu15.icache.mem_side::system.l2.cpu_side        34688                       # Cumulative packet size per connected master and slave (bytes)
system.tol2bus.pkt_size_system.cpu15.dcache.mem_side::system.l2.cpu_side        36672                       # Cumulative packet size per connected master and slave (bytes)
system.tol2bus.pkt_size::total                4621888                       # Cumulative packet size per connected master and slave (bytes)
system.tol2bus.snoops                            7889                       # Total snoops (count)
system.tol2bus.snoop_fanout::samples            52483                       # Request fanout histogram
system.tol2bus.snoop_fanout::mean            2.127451                       # Request fanout histogram
system.tol2bus.snoop_fanout::stdev           3.756103                       # Request fanout histogram
system.tol2bus.snoop_fanout::underflows             0      0.00%      0.00% # Request fanout histogram
system.tol2bus.snoop_fanout::0                  30729     58.55%     58.55% # Request fanout histogram
system.tol2bus.snoop_fanout::1                   6945     13.23%     71.78% # Request fanout histogram
system.tol2bus.snoop_fanout::2                   2240      4.27%     76.05% # Request fanout histogram
system.tol2bus.snoop_fanout::3                   1414      2.69%     78.75% # Request fanout histogram
system.tol2bus.snoop_fanout::4                   1286      2.45%     81.20% # Request fanout histogram
system.tol2bus.snoop_fanout::5                   1244      2.37%     83.57% # Request fanout histogram
system.tol2bus.snoop_fanout::6                   1221      2.33%     85.89% # Request fanout histogram
system.tol2bus.snoop_fanout::7                   1132      2.16%     88.05% # Request fanout histogram
system.tol2bus.snoop_fanout::8                   1021      1.95%     89.99% # Request fanout histogram
system.tol2bus.snoop_fanout::9                    920      1.75%     91.75% # Request fanout histogram
system.tol2bus.snoop_fanout::10                   867      1.65%     93.40% # Request fanout histogram
system.tol2bus.snoop_fanout::11                   797      1.52%     94.92% # Request fanout histogram
system.tol2bus.snoop_fanout::12                   772      1.47%     96.39% # Request fanout histogram
system.tol2bus.snoop_fanout::13                   745      1.42%     97.81% # Request fanout histogram
system.tol2bus.snoop_fanout::14                   714      1.36%     99.17% # Request fanout histogram
system.tol2bus.snoop_fanout::15                   432      0.82%     99.99% # Request fanout histogram
system.tol2bus.snoop_fanout::16                     4      0.01%    100.00% # Request fanout histogram
system.tol2bus.snoop_fanout::17                     0      0.00%    100.00% # Request fanout histogram
system.tol2bus.snoop_fanout::18                     0      0.00%    100.00% # Request fanout histogram
system.tol2bus.snoop_fanout::19                     0      0.00%    100.00% # Request fanout histogram
system.tol2bus.snoop_fanout::20                     0      0.00%    100.00% # Request fanout histogram
system.tol2bus.snoop_fanout::21                     0      0.00%    100.00% # Request fanout histogram
system.tol2bus.snoop_fanout::22                     0      0.00%    100.00% # Request fanout histogram
system.tol2bus.snoop_fanout::23                     0      0.00%    100.00% # Request fanout histogram
system.tol2bus.snoop_fanout::24                     0      0.00%    100.00% # Request fanout histogram
system.tol2bus.snoop_fanout::25                     0      0.00%    100.00% # Request fanout histogram
system.tol2bus.snoop_fanout::26                     0      0.00%    100.00% # Request fanout histogram
system.tol2bus.snoop_fanout::27                     0      0.00%    100.00% # Request fanout histogram
system.tol2bus.snoop_fanout::28                     0      0.00%    100.00% # Request fanout histogram
system.tol2bus.snoop_fanout::29                     0      0.00%    100.00% # Request fanout histogram
system.tol2bus.snoop_fanout::30                     0      0.00%    100.00% # Request fanout histogram
system.tol2bus.snoop_fanout::31                     0      0.00%    100.00% # Request fanout histogram
system.tol2bus.snoop_fanout::32                     0      0.00%    100.00% # Request fanout histogram
system.tol2bus.snoop_fanout::overflows              0      0.00%    100.00% # Request fanout histogram
system.tol2bus.snoop_fanout::min_value              0                       # Request fanout histogram
system.tol2bus.snoop_fanout::max_value             16                       # Request fanout histogram
system.tol2bus.snoop_fanout::total              52483                       # Request fanout histogram
system.tol2bus.reqLayer0.occupancy          168953153                       # Layer occupancy (ticks)
system.tol2bus.reqLayer0.utilization             13.2                       # Layer utilization (%)
system.tol2bus.respLayer0.occupancy          27802510                       # Layer occupancy (ticks)
system.tol2bus.respLayer0.utilization             2.2                       # Layer utilization (%)
system.tol2bus.respLayer1.occupancy          52899996                       # Layer occupancy (ticks)
system.tol2bus.respLayer1.utilization             4.1                       # Layer utilization (%)
system.tol2bus.respLayer2.occupancy           3508712                       # Layer occupancy (ticks)
system.tol2bus.respLayer2.utilization             0.3                       # Layer utilization (%)
system.tol2bus.respLayer3.occupancy           3992652                       # Layer occupancy (ticks)
system.tol2bus.respLayer3.utilization             0.3                       # Layer utilization (%)
system.tol2bus.respLayer4.occupancy           3135680                       # Layer occupancy (ticks)
system.tol2bus.respLayer4.utilization             0.2                       # Layer utilization (%)
system.tol2bus.respLayer5.occupancy           3686657                       # Layer occupancy (ticks)
system.tol2bus.respLayer5.utilization             0.3                       # Layer utilization (%)
system.tol2bus.respLayer6.occupancy           2746299                       # Layer occupancy (ticks)
system.tol2bus.respLayer6.utilization             0.2                       # Layer utilization (%)
system.tol2bus.respLayer7.occupancy           3720334                       # Layer occupancy (ticks)
system.tol2bus.respLayer7.utilization             0.3                       # Layer utilization (%)
system.tol2bus.respLayer8.occupancy           4113318                       # Layer occupancy (ticks)
system.tol2bus.respLayer8.utilization             0.3                       # Layer utilization (%)
system.tol2bus.respLayer9.occupancy           5519970                       # Layer occupancy (ticks)
system.tol2bus.respLayer9.utilization             0.4                       # Layer utilization (%)
system.tol2bus.respLayer10.occupancy          3840356                       # Layer occupancy (ticks)
system.tol2bus.respLayer10.utilization            0.3                       # Layer utilization (%)
system.tol2bus.respLayer11.occupancy          4911748                       # Layer occupancy (ticks)
system.tol2bus.respLayer11.utilization            0.4                       # Layer utilization (%)
system.tol2bus.respLayer12.occupancy          2401697                       # Layer occupancy (ticks)
system.tol2bus.respLayer12.utilization            0.2                       # Layer utilization (%)
system.tol2bus.respLayer13.occupancy          2306477                       # Layer occupancy (ticks)
system.tol2bus.respLayer13.utilization            0.2                       # Layer utilization (%)
system.tol2bus.respLayer14.occupancy          1561026                       # Layer occupancy (ticks)
system.tol2bus.respLayer14.utilization            0.1                       # Layer utilization (%)
system.tol2bus.respLayer15.occupancy          1731152                       # Layer occupancy (ticks)
system.tol2bus.respLayer15.utilization            0.1                       # Layer utilization (%)
system.tol2bus.respLayer16.occupancy          1860811                       # Layer occupancy (ticks)
system.tol2bus.respLayer16.utilization            0.1                       # Layer utilization (%)
system.tol2bus.respLayer17.occupancy          1807977                       # Layer occupancy (ticks)
system.tol2bus.respLayer17.utilization            0.1                       # Layer utilization (%)
system.tol2bus.respLayer18.occupancy          1993248                       # Layer occupancy (ticks)
system.tol2bus.respLayer18.utilization            0.2                       # Layer utilization (%)
system.tol2bus.respLayer19.occupancy          1835774                       # Layer occupancy (ticks)
system.tol2bus.respLayer19.utilization            0.1                       # Layer utilization (%)
system.tol2bus.respLayer20.occupancy          3343129                       # Layer occupancy (ticks)
system.tol2bus.respLayer20.utilization            0.3                       # Layer utilization (%)
system.tol2bus.respLayer21.occupancy          3830377                       # Layer occupancy (ticks)
system.tol2bus.respLayer21.utilization            0.3                       # Layer utilization (%)
system.tol2bus.respLayer22.occupancy          3728696                       # Layer occupancy (ticks)
system.tol2bus.respLayer22.utilization            0.3                       # Layer utilization (%)
system.tol2bus.respLayer23.occupancy          4462619                       # Layer occupancy (ticks)
system.tol2bus.respLayer23.utilization            0.3                       # Layer utilization (%)
system.tol2bus.respLayer24.occupancy          2702063                       # Layer occupancy (ticks)
system.tol2bus.respLayer24.utilization            0.2                       # Layer utilization (%)
system.tol2bus.respLayer25.occupancy          4167652                       # Layer occupancy (ticks)
system.tol2bus.respLayer25.utilization            0.3                       # Layer utilization (%)
system.tol2bus.respLayer26.occupancy          3844802                       # Layer occupancy (ticks)
system.tol2bus.respLayer26.utilization            0.3                       # Layer utilization (%)
system.tol2bus.respLayer27.occupancy          5131932                       # Layer occupancy (ticks)
system.tol2bus.respLayer27.utilization            0.4                       # Layer utilization (%)
system.tol2bus.respLayer28.occupancy          2637603                       # Layer occupancy (ticks)
system.tol2bus.respLayer28.utilization            0.2                       # Layer utilization (%)
system.tol2bus.respLayer29.occupancy          2543592                       # Layer occupancy (ticks)
system.tol2bus.respLayer29.utilization            0.2                       # Layer utilization (%)
system.tol2bus.respLayer30.occupancy          1669361                       # Layer occupancy (ticks)
system.tol2bus.respLayer30.utilization            0.1                       # Layer utilization (%)
system.tol2bus.respLayer31.occupancy          1743088                       # Layer occupancy (ticks)
system.tol2bus.respLayer31.utilization            0.1                       # Layer utilization (%)

---------- End Simulation Statistics   ----------
