
---------- Begin Simulation Statistics ----------
sim_seconds                                  0.001297                       # Number of seconds simulated
sim_ticks                                  1297241260                       # Number of ticks simulated
final_tick                                 1297241260                       # Number of ticks from beginning of simulation (restored from checkpoints and never reset)
sim_freq                                 1000000000000                       # Frequency of simulated ticks
host_inst_rate                                 229202                       # Simulator instruction rate (inst/s)
host_op_rate                                   229201                       # Simulator op (including micro ops) rate (op/s)
host_tick_rate                              117725014                       # Simulator tick rate (ticks/s)
host_mem_usage                                 694804                       # Number of bytes of host memory used
host_seconds                                    11.02                       # Real time elapsed on the host
sim_insts                                     2525621                       # Number of instructions simulated
sim_ops                                       2525621                       # Number of ops (including micro ops) simulated
system.voltage_domain.voltage                       1                       # Voltage in Volts
system.clk_domain.clock                          1000                       # Clock period in ticks
system.mem_ctrls.bytes_read::cpu00.inst        118848                       # Number of bytes read from this memory
system.mem_ctrls.bytes_read::cpu00.data        376704                       # Number of bytes read from this memory
system.mem_ctrls.bytes_read::cpu01.inst         13760                       # Number of bytes read from this memory
system.mem_ctrls.bytes_read::cpu01.data          5696                       # Number of bytes read from this memory
system.mem_ctrls.bytes_read::cpu02.inst          1280                       # Number of bytes read from this memory
system.mem_ctrls.bytes_read::cpu02.data          5568                       # Number of bytes read from this memory
system.mem_ctrls.bytes_read::cpu03.inst           192                       # Number of bytes read from this memory
system.mem_ctrls.bytes_read::cpu03.data          4416                       # Number of bytes read from this memory
system.mem_ctrls.bytes_read::cpu04.inst           192                       # Number of bytes read from this memory
system.mem_ctrls.bytes_read::cpu04.data          4288                       # Number of bytes read from this memory
system.mem_ctrls.bytes_read::cpu05.inst           384                       # Number of bytes read from this memory
system.mem_ctrls.bytes_read::cpu05.data          4608                       # Number of bytes read from this memory
system.mem_ctrls.bytes_read::cpu06.inst           960                       # Number of bytes read from this memory
system.mem_ctrls.bytes_read::cpu06.data          5568                       # Number of bytes read from this memory
system.mem_ctrls.bytes_read::cpu07.inst           704                       # Number of bytes read from this memory
system.mem_ctrls.bytes_read::cpu07.data          5248                       # Number of bytes read from this memory
system.mem_ctrls.bytes_read::cpu08.inst          1536                       # Number of bytes read from this memory
system.mem_ctrls.bytes_read::cpu08.data          5440                       # Number of bytes read from this memory
system.mem_ctrls.bytes_read::cpu09.inst           320                       # Number of bytes read from this memory
system.mem_ctrls.bytes_read::cpu09.data          4992                       # Number of bytes read from this memory
system.mem_ctrls.bytes_read::cpu10.inst          5312                       # Number of bytes read from this memory
system.mem_ctrls.bytes_read::cpu10.data          5504                       # Number of bytes read from this memory
system.mem_ctrls.bytes_read::cpu11.inst          1600                       # Number of bytes read from this memory
system.mem_ctrls.bytes_read::cpu11.data          5696                       # Number of bytes read from this memory
system.mem_ctrls.bytes_read::cpu12.inst          1408                       # Number of bytes read from this memory
system.mem_ctrls.bytes_read::cpu12.data          5760                       # Number of bytes read from this memory
system.mem_ctrls.bytes_read::cpu13.inst           576                       # Number of bytes read from this memory
system.mem_ctrls.bytes_read::cpu13.data          4480                       # Number of bytes read from this memory
system.mem_ctrls.bytes_read::cpu14.inst          1024                       # Number of bytes read from this memory
system.mem_ctrls.bytes_read::cpu14.data          5632                       # Number of bytes read from this memory
system.mem_ctrls.bytes_read::cpu15.inst           960                       # Number of bytes read from this memory
system.mem_ctrls.bytes_read::cpu15.data          6400                       # Number of bytes read from this memory
system.mem_ctrls.bytes_read::total             605056                       # Number of bytes read from this memory
system.mem_ctrls.bytes_inst_read::cpu00.inst       118848                       # Number of instructions bytes read from this memory
system.mem_ctrls.bytes_inst_read::cpu01.inst        13760                       # Number of instructions bytes read from this memory
system.mem_ctrls.bytes_inst_read::cpu02.inst         1280                       # Number of instructions bytes read from this memory
system.mem_ctrls.bytes_inst_read::cpu03.inst          192                       # Number of instructions bytes read from this memory
system.mem_ctrls.bytes_inst_read::cpu04.inst          192                       # Number of instructions bytes read from this memory
system.mem_ctrls.bytes_inst_read::cpu05.inst          384                       # Number of instructions bytes read from this memory
system.mem_ctrls.bytes_inst_read::cpu06.inst          960                       # Number of instructions bytes read from this memory
system.mem_ctrls.bytes_inst_read::cpu07.inst          704                       # Number of instructions bytes read from this memory
system.mem_ctrls.bytes_inst_read::cpu08.inst         1536                       # Number of instructions bytes read from this memory
system.mem_ctrls.bytes_inst_read::cpu09.inst          320                       # Number of instructions bytes read from this memory
system.mem_ctrls.bytes_inst_read::cpu10.inst         5312                       # Number of instructions bytes read from this memory
system.mem_ctrls.bytes_inst_read::cpu11.inst         1600                       # Number of instructions bytes read from this memory
system.mem_ctrls.bytes_inst_read::cpu12.inst         1408                       # Number of instructions bytes read from this memory
system.mem_ctrls.bytes_inst_read::cpu13.inst          576                       # Number of instructions bytes read from this memory
system.mem_ctrls.bytes_inst_read::cpu14.inst         1024                       # Number of instructions bytes read from this memory
system.mem_ctrls.bytes_inst_read::cpu15.inst          960                       # Number of instructions bytes read from this memory
system.mem_ctrls.bytes_inst_read::total        149056                       # Number of instructions bytes read from this memory
system.mem_ctrls.bytes_written::writebacks          256                       # Number of bytes written to this memory
system.mem_ctrls.bytes_written::total             256                       # Number of bytes written to this memory
system.mem_ctrls.num_reads::cpu00.inst           1857                       # Number of read requests responded to by this memory
system.mem_ctrls.num_reads::cpu00.data           5886                       # Number of read requests responded to by this memory
system.mem_ctrls.num_reads::cpu01.inst            215                       # Number of read requests responded to by this memory
system.mem_ctrls.num_reads::cpu01.data             89                       # Number of read requests responded to by this memory
system.mem_ctrls.num_reads::cpu02.inst             20                       # Number of read requests responded to by this memory
system.mem_ctrls.num_reads::cpu02.data             87                       # Number of read requests responded to by this memory
system.mem_ctrls.num_reads::cpu03.inst              3                       # Number of read requests responded to by this memory
system.mem_ctrls.num_reads::cpu03.data             69                       # Number of read requests responded to by this memory
system.mem_ctrls.num_reads::cpu04.inst              3                       # Number of read requests responded to by this memory
system.mem_ctrls.num_reads::cpu04.data             67                       # Number of read requests responded to by this memory
system.mem_ctrls.num_reads::cpu05.inst              6                       # Number of read requests responded to by this memory
system.mem_ctrls.num_reads::cpu05.data             72                       # Number of read requests responded to by this memory
system.mem_ctrls.num_reads::cpu06.inst             15                       # Number of read requests responded to by this memory
system.mem_ctrls.num_reads::cpu06.data             87                       # Number of read requests responded to by this memory
system.mem_ctrls.num_reads::cpu07.inst             11                       # Number of read requests responded to by this memory
system.mem_ctrls.num_reads::cpu07.data             82                       # Number of read requests responded to by this memory
system.mem_ctrls.num_reads::cpu08.inst             24                       # Number of read requests responded to by this memory
system.mem_ctrls.num_reads::cpu08.data             85                       # Number of read requests responded to by this memory
system.mem_ctrls.num_reads::cpu09.inst              5                       # Number of read requests responded to by this memory
system.mem_ctrls.num_reads::cpu09.data             78                       # Number of read requests responded to by this memory
system.mem_ctrls.num_reads::cpu10.inst             83                       # Number of read requests responded to by this memory
system.mem_ctrls.num_reads::cpu10.data             86                       # Number of read requests responded to by this memory
system.mem_ctrls.num_reads::cpu11.inst             25                       # Number of read requests responded to by this memory
system.mem_ctrls.num_reads::cpu11.data             89                       # Number of read requests responded to by this memory
system.mem_ctrls.num_reads::cpu12.inst             22                       # Number of read requests responded to by this memory
system.mem_ctrls.num_reads::cpu12.data             90                       # Number of read requests responded to by this memory
system.mem_ctrls.num_reads::cpu13.inst              9                       # Number of read requests responded to by this memory
system.mem_ctrls.num_reads::cpu13.data             70                       # Number of read requests responded to by this memory
system.mem_ctrls.num_reads::cpu14.inst             16                       # Number of read requests responded to by this memory
system.mem_ctrls.num_reads::cpu14.data             88                       # Number of read requests responded to by this memory
system.mem_ctrls.num_reads::cpu15.inst             15                       # Number of read requests responded to by this memory
system.mem_ctrls.num_reads::cpu15.data            100                       # Number of read requests responded to by this memory
system.mem_ctrls.num_reads::total                9454                       # Number of read requests responded to by this memory
system.mem_ctrls.num_writes::writebacks             4                       # Number of write requests responded to by this memory
system.mem_ctrls.num_writes::total                  4                       # Number of write requests responded to by this memory
system.mem_ctrls.bw_read::cpu00.inst         91615957                       # Total read bandwidth from this memory (bytes/s)
system.mem_ctrls.bw_read::cpu00.data        290388543                       # Total read bandwidth from this memory (bytes/s)
system.mem_ctrls.bw_read::cpu01.inst         10607125                       # Total read bandwidth from this memory (bytes/s)
system.mem_ctrls.bw_read::cpu01.data          4390856                       # Total read bandwidth from this memory (bytes/s)
system.mem_ctrls.bw_read::cpu02.inst           986709                       # Total read bandwidth from this memory (bytes/s)
system.mem_ctrls.bw_read::cpu02.data          4292185                       # Total read bandwidth from this memory (bytes/s)
system.mem_ctrls.bw_read::cpu03.inst           148006                       # Total read bandwidth from this memory (bytes/s)
system.mem_ctrls.bw_read::cpu03.data          3404147                       # Total read bandwidth from this memory (bytes/s)
system.mem_ctrls.bw_read::cpu04.inst           148006                       # Total read bandwidth from this memory (bytes/s)
system.mem_ctrls.bw_read::cpu04.data          3305476                       # Total read bandwidth from this memory (bytes/s)
system.mem_ctrls.bw_read::cpu05.inst           296013                       # Total read bandwidth from this memory (bytes/s)
system.mem_ctrls.bw_read::cpu05.data          3552153                       # Total read bandwidth from this memory (bytes/s)
system.mem_ctrls.bw_read::cpu06.inst           740032                       # Total read bandwidth from this memory (bytes/s)
system.mem_ctrls.bw_read::cpu06.data          4292185                       # Total read bandwidth from this memory (bytes/s)
system.mem_ctrls.bw_read::cpu07.inst           542690                       # Total read bandwidth from this memory (bytes/s)
system.mem_ctrls.bw_read::cpu07.data          4045508                       # Total read bandwidth from this memory (bytes/s)
system.mem_ctrls.bw_read::cpu08.inst          1184051                       # Total read bandwidth from this memory (bytes/s)
system.mem_ctrls.bw_read::cpu08.data          4193514                       # Total read bandwidth from this memory (bytes/s)
system.mem_ctrls.bw_read::cpu09.inst           246677                       # Total read bandwidth from this memory (bytes/s)
system.mem_ctrls.bw_read::cpu09.data          3848166                       # Total read bandwidth from this memory (bytes/s)
system.mem_ctrls.bw_read::cpu10.inst          4094844                       # Total read bandwidth from this memory (bytes/s)
system.mem_ctrls.bw_read::cpu10.data          4242850                       # Total read bandwidth from this memory (bytes/s)
system.mem_ctrls.bw_read::cpu11.inst          1233387                       # Total read bandwidth from this memory (bytes/s)
system.mem_ctrls.bw_read::cpu11.data          4390856                       # Total read bandwidth from this memory (bytes/s)
system.mem_ctrls.bw_read::cpu12.inst          1085380                       # Total read bandwidth from this memory (bytes/s)
system.mem_ctrls.bw_read::cpu12.data          4440192                       # Total read bandwidth from this memory (bytes/s)
system.mem_ctrls.bw_read::cpu13.inst           444019                       # Total read bandwidth from this memory (bytes/s)
system.mem_ctrls.bw_read::cpu13.data          3453483                       # Total read bandwidth from this memory (bytes/s)
system.mem_ctrls.bw_read::cpu14.inst           789367                       # Total read bandwidth from this memory (bytes/s)
system.mem_ctrls.bw_read::cpu14.data          4341521                       # Total read bandwidth from this memory (bytes/s)
system.mem_ctrls.bw_read::cpu15.inst           740032                       # Total read bandwidth from this memory (bytes/s)
system.mem_ctrls.bw_read::cpu15.data          4933546                       # Total read bandwidth from this memory (bytes/s)
system.mem_ctrls.bw_read::total             466417480                       # Total read bandwidth from this memory (bytes/s)
system.mem_ctrls.bw_inst_read::cpu00.inst     91615957                       # Instruction read bandwidth from this memory (bytes/s)
system.mem_ctrls.bw_inst_read::cpu01.inst     10607125                       # Instruction read bandwidth from this memory (bytes/s)
system.mem_ctrls.bw_inst_read::cpu02.inst       986709                       # Instruction read bandwidth from this memory (bytes/s)
system.mem_ctrls.bw_inst_read::cpu03.inst       148006                       # Instruction read bandwidth from this memory (bytes/s)
system.mem_ctrls.bw_inst_read::cpu04.inst       148006                       # Instruction read bandwidth from this memory (bytes/s)
system.mem_ctrls.bw_inst_read::cpu05.inst       296013                       # Instruction read bandwidth from this memory (bytes/s)
system.mem_ctrls.bw_inst_read::cpu06.inst       740032                       # Instruction read bandwidth from this memory (bytes/s)
system.mem_ctrls.bw_inst_read::cpu07.inst       542690                       # Instruction read bandwidth from this memory (bytes/s)
system.mem_ctrls.bw_inst_read::cpu08.inst      1184051                       # Instruction read bandwidth from this memory (bytes/s)
system.mem_ctrls.bw_inst_read::cpu09.inst       246677                       # Instruction read bandwidth from this memory (bytes/s)
system.mem_ctrls.bw_inst_read::cpu10.inst      4094844                       # Instruction read bandwidth from this memory (bytes/s)
system.mem_ctrls.bw_inst_read::cpu11.inst      1233387                       # Instruction read bandwidth from this memory (bytes/s)
system.mem_ctrls.bw_inst_read::cpu12.inst      1085380                       # Instruction read bandwidth from this memory (bytes/s)
system.mem_ctrls.bw_inst_read::cpu13.inst       444019                       # Instruction read bandwidth from this memory (bytes/s)
system.mem_ctrls.bw_inst_read::cpu14.inst       789367                       # Instruction read bandwidth from this memory (bytes/s)
system.mem_ctrls.bw_inst_read::cpu15.inst       740032                       # Instruction read bandwidth from this memory (bytes/s)
system.mem_ctrls.bw_inst_read::total        114902297                       # Instruction read bandwidth from this memory (bytes/s)
system.mem_ctrls.bw_write::writebacks          197342                       # Write bandwidth from this memory (bytes/s)
system.mem_ctrls.bw_write::total               197342                       # Write bandwidth from this memory (bytes/s)
system.mem_ctrls.bw_total::writebacks          197342                       # Total bandwidth to/from this memory (bytes/s)
system.mem_ctrls.bw_total::cpu00.inst        91615957                       # Total bandwidth to/from this memory (bytes/s)
system.mem_ctrls.bw_total::cpu00.data       290388543                       # Total bandwidth to/from this memory (bytes/s)
system.mem_ctrls.bw_total::cpu01.inst        10607125                       # Total bandwidth to/from this memory (bytes/s)
system.mem_ctrls.bw_total::cpu01.data         4390856                       # Total bandwidth to/from this memory (bytes/s)
system.mem_ctrls.bw_total::cpu02.inst          986709                       # Total bandwidth to/from this memory (bytes/s)
system.mem_ctrls.bw_total::cpu02.data         4292185                       # Total bandwidth to/from this memory (bytes/s)
system.mem_ctrls.bw_total::cpu03.inst          148006                       # Total bandwidth to/from this memory (bytes/s)
system.mem_ctrls.bw_total::cpu03.data         3404147                       # Total bandwidth to/from this memory (bytes/s)
system.mem_ctrls.bw_total::cpu04.inst          148006                       # Total bandwidth to/from this memory (bytes/s)
system.mem_ctrls.bw_total::cpu04.data         3305476                       # Total bandwidth to/from this memory (bytes/s)
system.mem_ctrls.bw_total::cpu05.inst          296013                       # Total bandwidth to/from this memory (bytes/s)
system.mem_ctrls.bw_total::cpu05.data         3552153                       # Total bandwidth to/from this memory (bytes/s)
system.mem_ctrls.bw_total::cpu06.inst          740032                       # Total bandwidth to/from this memory (bytes/s)
system.mem_ctrls.bw_total::cpu06.data         4292185                       # Total bandwidth to/from this memory (bytes/s)
system.mem_ctrls.bw_total::cpu07.inst          542690                       # Total bandwidth to/from this memory (bytes/s)
system.mem_ctrls.bw_total::cpu07.data         4045508                       # Total bandwidth to/from this memory (bytes/s)
system.mem_ctrls.bw_total::cpu08.inst         1184051                       # Total bandwidth to/from this memory (bytes/s)
system.mem_ctrls.bw_total::cpu08.data         4193514                       # Total bandwidth to/from this memory (bytes/s)
system.mem_ctrls.bw_total::cpu09.inst          246677                       # Total bandwidth to/from this memory (bytes/s)
system.mem_ctrls.bw_total::cpu09.data         3848166                       # Total bandwidth to/from this memory (bytes/s)
system.mem_ctrls.bw_total::cpu10.inst         4094844                       # Total bandwidth to/from this memory (bytes/s)
system.mem_ctrls.bw_total::cpu10.data         4242850                       # Total bandwidth to/from this memory (bytes/s)
system.mem_ctrls.bw_total::cpu11.inst         1233387                       # Total bandwidth to/from this memory (bytes/s)
system.mem_ctrls.bw_total::cpu11.data         4390856                       # Total bandwidth to/from this memory (bytes/s)
system.mem_ctrls.bw_total::cpu12.inst         1085380                       # Total bandwidth to/from this memory (bytes/s)
system.mem_ctrls.bw_total::cpu12.data         4440192                       # Total bandwidth to/from this memory (bytes/s)
system.mem_ctrls.bw_total::cpu13.inst          444019                       # Total bandwidth to/from this memory (bytes/s)
system.mem_ctrls.bw_total::cpu13.data         3453483                       # Total bandwidth to/from this memory (bytes/s)
system.mem_ctrls.bw_total::cpu14.inst          789367                       # Total bandwidth to/from this memory (bytes/s)
system.mem_ctrls.bw_total::cpu14.data         4341521                       # Total bandwidth to/from this memory (bytes/s)
system.mem_ctrls.bw_total::cpu15.inst          740032                       # Total bandwidth to/from this memory (bytes/s)
system.mem_ctrls.bw_total::cpu15.data         4933546                       # Total bandwidth to/from this memory (bytes/s)
system.mem_ctrls.bw_total::total            466614822                       # Total bandwidth to/from this memory (bytes/s)
system.cpu00.branchPred.lookups                132501                       # Number of BP lookups
system.cpu00.branchPred.condPredicted           73750                       # Number of conditional branches predicted
system.cpu00.branchPred.condIncorrect            5668                       # Number of conditional branches incorrect
system.cpu00.branchPred.BTBLookups              88856                       # Number of BTB lookups
system.cpu00.branchPred.BTBHits                 66390                       # Number of BTB hits
system.cpu00.branchPred.BTBCorrect                  0                       # Number of correct BTB predictions (this stat may not work properly.
system.cpu00.branchPred.BTBHitPct           74.716395                       # BTB Hit Percentage
system.cpu00.branchPred.usedRAS                 26473                       # Number of times the RAS was used to get a target.
system.cpu00.branchPred.RASInCorrect               84                       # Number of incorrect RAS predictions.
system.cpu00.branchPred.indirectLookups          3641                       # Number of indirect predictor lookups.
system.cpu00.branchPred.indirectHits             2880                       # Number of indirect target hits.
system.cpu00.branchPred.indirectMisses            761                       # Number of indirect misses.
system.cpu00.branchPredindirectMispredicted          251                       # Number of mispredicted indirect branches.
system.cpu_voltage_domain.voltage                   1                       # Voltage in Volts
system.cpu_clk_domain.clock                      1180                       # Clock period in ticks
system.cpu00.dtb.fetch_hits                         0                       # ITB hits
system.cpu00.dtb.fetch_misses                       0                       # ITB misses
system.cpu00.dtb.fetch_acv                          0                       # ITB acv
system.cpu00.dtb.fetch_accesses                     0                       # ITB accesses
system.cpu00.dtb.read_hits                     180927                       # DTB read hits
system.cpu00.dtb.read_misses                      626                       # DTB read misses
system.cpu00.dtb.read_acv                           0                       # DTB read access violations
system.cpu00.dtb.read_accesses                 181553                       # DTB read accesses
system.cpu00.dtb.write_hits                    127965                       # DTB write hits
system.cpu00.dtb.write_misses                    1077                       # DTB write misses
system.cpu00.dtb.write_acv                          0                       # DTB write access violations
system.cpu00.dtb.write_accesses                129042                       # DTB write accesses
system.cpu00.dtb.data_hits                     308892                       # DTB hits
system.cpu00.dtb.data_misses                     1703                       # DTB misses
system.cpu00.dtb.data_acv                           0                       # DTB access violations
system.cpu00.dtb.data_accesses                 310595                       # DTB accesses
system.cpu00.itb.fetch_hits                    149066                       # ITB hits
system.cpu00.itb.fetch_misses                     155                       # ITB misses
system.cpu00.itb.fetch_acv                          0                       # ITB acv
system.cpu00.itb.fetch_accesses                149221                       # ITB accesses
system.cpu00.itb.read_hits                          0                       # DTB read hits
system.cpu00.itb.read_misses                        0                       # DTB read misses
system.cpu00.itb.read_acv                           0                       # DTB read access violations
system.cpu00.itb.read_accesses                      0                       # DTB read accesses
system.cpu00.itb.write_hits                         0                       # DTB write hits
system.cpu00.itb.write_misses                       0                       # DTB write misses
system.cpu00.itb.write_acv                          0                       # DTB write access violations
system.cpu00.itb.write_accesses                     0                       # DTB write accesses
system.cpu00.itb.data_hits                          0                       # DTB hits
system.cpu00.itb.data_misses                        0                       # DTB misses
system.cpu00.itb.data_acv                           0                       # DTB access violations
system.cpu00.itb.data_accesses                      0                       # DTB accesses
system.cpu00.workload.num_syscalls               2912                       # Number of system calls
system.cpu00.numCycles                        1007389                       # number of cpu cycles simulated
system.cpu00.numWorkItemsStarted                    0                       # number of work items this cpu started
system.cpu00.numWorkItemsCompleted                  0                       # number of work items this cpu completed
system.cpu00.fetch.icacheStallCycles            81199                       # Number of cycles fetch is stalled on an Icache miss
system.cpu00.fetch.Insts                      1189210                       # Number of instructions fetch has processed
system.cpu00.fetch.Branches                    132501                       # Number of branches that fetch encountered
system.cpu00.fetch.predictedBranches            95743                       # Number of branches that fetch has predicted taken
system.cpu00.fetch.Cycles                      716638                       # Number of cycles fetch has run and was not squashing or blocked
system.cpu00.fetch.SquashCycles                 12706                       # Number of cycles fetch has spent squashing
system.cpu00.fetch.MiscStallCycles                380                       # Number of cycles fetch has spent waiting on interrupts, or bad addresses, or out of MSHRs
system.cpu00.fetch.PendingTrapStallCycles         6103                       # Number of stall cycles due to pending traps
system.cpu00.fetch.IcacheWaitRetryStallCycles          601                       # Number of stall cycles due to full MSHR
system.cpu00.fetch.CacheLines                  149066                       # Number of cache lines fetched
system.cpu00.fetch.IcacheSquashes                2568                       # Number of outstanding Icache misses that were squashed
system.cpu00.fetch.rateDist::samples           811274                       # Number of instructions fetched each cycle (Total)
system.cpu00.fetch.rateDist::mean            1.465855                       # Number of instructions fetched each cycle (Total)
system.cpu00.fetch.rateDist::stdev           2.729010                       # Number of instructions fetched each cycle (Total)
system.cpu00.fetch.rateDist::underflows             0      0.00%      0.00% # Number of instructions fetched each cycle (Total)
system.cpu00.fetch.rateDist::0                 593589     73.17%     73.17% # Number of instructions fetched each cycle (Total)
system.cpu00.fetch.rateDist::1                  16370      2.02%     75.19% # Number of instructions fetched each cycle (Total)
system.cpu00.fetch.rateDist::2                  17338      2.14%     77.32% # Number of instructions fetched each cycle (Total)
system.cpu00.fetch.rateDist::3                  17062      2.10%     79.43% # Number of instructions fetched each cycle (Total)
system.cpu00.fetch.rateDist::4                  37980      4.68%     84.11% # Number of instructions fetched each cycle (Total)
system.cpu00.fetch.rateDist::5                  15857      1.95%     86.06% # Number of instructions fetched each cycle (Total)
system.cpu00.fetch.rateDist::6                  18775      2.31%     88.38% # Number of instructions fetched each cycle (Total)
system.cpu00.fetch.rateDist::7                  11301      1.39%     89.77% # Number of instructions fetched each cycle (Total)
system.cpu00.fetch.rateDist::8                  83002     10.23%    100.00% # Number of instructions fetched each cycle (Total)
system.cpu00.fetch.rateDist::overflows              0      0.00%    100.00% # Number of instructions fetched each cycle (Total)
system.cpu00.fetch.rateDist::min_value              0                       # Number of instructions fetched each cycle (Total)
system.cpu00.fetch.rateDist::max_value              8                       # Number of instructions fetched each cycle (Total)
system.cpu00.fetch.rateDist::total             811274                       # Number of instructions fetched each cycle (Total)
system.cpu00.fetch.branchRate                0.131529                       # Number of branch fetches per cycle
system.cpu00.fetch.rate                      1.180487                       # Number of inst fetches per cycle
system.cpu00.decode.IdleCycles                  88336                       # Number of cycles decode is idle
system.cpu00.decode.BlockedCycles              555414                       # Number of cycles decode is blocked
system.cpu00.decode.RunCycles                  129584                       # Number of cycles decode is running
system.cpu00.decode.UnblockCycles               33323                       # Number of cycles decode is unblocking
system.cpu00.decode.SquashCycles                 4617                       # Number of cycles decode is squashing
system.cpu00.decode.BranchResolved              26522                       # Number of times decode resolved a branch
system.cpu00.decode.BranchMispred                1784                       # Number of times decode detected a branch misprediction
system.cpu00.decode.DecodedInsts              1125370                       # Number of instructions handled by decode
system.cpu00.decode.SquashedInsts                7275                       # Number of squashed instructions handled by decode
system.cpu00.rename.SquashCycles                 4617                       # Number of cycles rename is squashing
system.cpu00.rename.IdleCycles                 104240                       # Number of cycles rename is idle
system.cpu00.rename.BlockCycles                 95365                       # Number of cycles rename is blocking
system.cpu00.rename.serializeStallCycles       217380                       # count of cycles rename stalled for serializing inst
system.cpu00.rename.RunCycles                  147151                       # Number of cycles rename is running
system.cpu00.rename.UnblockCycles              242521                       # Number of cycles rename is unblocking
system.cpu00.rename.RenamedInsts              1105973                       # Number of instructions processed by rename
system.cpu00.rename.ROBFullEvents                2759                       # Number of times rename has blocked due to ROB full
system.cpu00.rename.IQFullEvents                21979                       # Number of times rename has blocked due to IQ full
system.cpu00.rename.LQFullEvents                 1354                       # Number of times rename has blocked due to LQ full
system.cpu00.rename.SQFullEvents               208567                       # Number of times rename has blocked due to SQ full
system.cpu00.rename.RenamedOperands            758099                       # Number of destination operands rename has renamed
system.cpu00.rename.RenameLookups             1369298                       # Number of register rename lookups that rename has made
system.cpu00.rename.int_rename_lookups        1211180                       # Number of integer rename lookups
system.cpu00.rename.fp_rename_lookups          155831                       # Number of floating rename lookups
system.cpu00.rename.CommittedMaps              668777                       # Number of HB maps that are committed
system.cpu00.rename.UndoneMaps                  89322                       # Number of HB maps that are undone due to squashing
system.cpu00.rename.serializingInsts             4017                       # count of serializing insts renamed
system.cpu00.rename.tempSerializingInsts         1650                       # count of temporary serializing insts renamed
system.cpu00.rename.skidInsts                  149055                       # count of insts added to the skid buffer
system.cpu00.memDep0.insertedLoads             179661                       # Number of loads inserted to the mem dependence unit.
system.cpu00.memDep0.insertedStores            135310                       # Number of stores inserted to the mem dependence unit.
system.cpu00.memDep0.conflictingLoads           32091                       # Number of conflicting loads.
system.cpu00.memDep0.conflictingStores          12336                       # Number of conflicting stores.
system.cpu00.iq.iqInstsAdded                   968756                       # Number of instructions added to the IQ (excludes non-spec)
system.cpu00.iq.iqNonSpecInstsAdded              2719                       # Number of non-speculative instructions added to the IQ
system.cpu00.iq.iqInstsIssued                  952702                       # Number of instructions issued
system.cpu00.iq.iqSquashedInstsIssued            1594                       # Number of squashed instructions issued
system.cpu00.iq.iqSquashedInstsExamined        101670                       # Number of squashed instructions iterated over during squash; mainly for profiling
system.cpu00.iq.iqSquashedOperandsExamined        50024                       # Number of squashed operands that are examined and possibly removed from graph
system.cpu00.iq.iqSquashedNonSpecRemoved          348                       # Number of squashed non-spec instructions that were removed
system.cpu00.iq.issued_per_cycle::samples       811274                       # Number of insts issued each cycle
system.cpu00.iq.issued_per_cycle::mean       1.174328                       # Number of insts issued each cycle
system.cpu00.iq.issued_per_cycle::stdev      1.941218                       # Number of insts issued each cycle
system.cpu00.iq.issued_per_cycle::underflows            0      0.00%      0.00% # Number of insts issued each cycle
system.cpu00.iq.issued_per_cycle::0            513843     63.34%     63.34% # Number of insts issued each cycle
system.cpu00.iq.issued_per_cycle::1             73269      9.03%     72.37% # Number of insts issued each cycle
system.cpu00.iq.issued_per_cycle::2             60510      7.46%     79.83% # Number of insts issued each cycle
system.cpu00.iq.issued_per_cycle::3             45102      5.56%     85.39% # Number of insts issued each cycle
system.cpu00.iq.issued_per_cycle::4             43401      5.35%     90.74% # Number of insts issued each cycle
system.cpu00.iq.issued_per_cycle::5             28643      3.53%     94.27% # Number of insts issued each cycle
system.cpu00.iq.issued_per_cycle::6             27112      3.34%     97.61% # Number of insts issued each cycle
system.cpu00.iq.issued_per_cycle::7             11536      1.42%     99.03% # Number of insts issued each cycle
system.cpu00.iq.issued_per_cycle::8              7858      0.97%    100.00% # Number of insts issued each cycle
system.cpu00.iq.issued_per_cycle::overflows            0      0.00%    100.00% # Number of insts issued each cycle
system.cpu00.iq.issued_per_cycle::min_value            0                       # Number of insts issued each cycle
system.cpu00.iq.issued_per_cycle::max_value            8                       # Number of insts issued each cycle
system.cpu00.iq.issued_per_cycle::total        811274                       # Number of insts issued each cycle
system.cpu00.iq.fu_full::No_OpClass                 0      0.00%      0.00% # attempts to use FU when none available
system.cpu00.iq.fu_full::IntAlu                  4969     16.11%     16.11% # attempts to use FU when none available
system.cpu00.iq.fu_full::IntMult                 4097     13.28%     29.40% # attempts to use FU when none available
system.cpu00.iq.fu_full::IntDiv                     0      0.00%     29.40% # attempts to use FU when none available
system.cpu00.iq.fu_full::FloatAdd                  82      0.27%     29.66% # attempts to use FU when none available
system.cpu00.iq.fu_full::FloatCmp                   0      0.00%     29.66% # attempts to use FU when none available
system.cpu00.iq.fu_full::FloatCvt                   0      0.00%     29.66% # attempts to use FU when none available
system.cpu00.iq.fu_full::FloatMult               5883     19.08%     48.74% # attempts to use FU when none available
system.cpu00.iq.fu_full::FloatDiv                   0      0.00%     48.74% # attempts to use FU when none available
system.cpu00.iq.fu_full::FloatSqrt                  0      0.00%     48.74% # attempts to use FU when none available
system.cpu00.iq.fu_full::SimdAdd                    0      0.00%     48.74% # attempts to use FU when none available
system.cpu00.iq.fu_full::SimdAddAcc                 0      0.00%     48.74% # attempts to use FU when none available
system.cpu00.iq.fu_full::SimdAlu                    0      0.00%     48.74% # attempts to use FU when none available
system.cpu00.iq.fu_full::SimdCmp                    0      0.00%     48.74% # attempts to use FU when none available
system.cpu00.iq.fu_full::SimdCvt                    0      0.00%     48.74% # attempts to use FU when none available
system.cpu00.iq.fu_full::SimdMisc                   0      0.00%     48.74% # attempts to use FU when none available
system.cpu00.iq.fu_full::SimdMult                   0      0.00%     48.74% # attempts to use FU when none available
system.cpu00.iq.fu_full::SimdMultAcc                0      0.00%     48.74% # attempts to use FU when none available
system.cpu00.iq.fu_full::SimdShift                  0      0.00%     48.74% # attempts to use FU when none available
system.cpu00.iq.fu_full::SimdShiftAcc               0      0.00%     48.74% # attempts to use FU when none available
system.cpu00.iq.fu_full::SimdSqrt                   0      0.00%     48.74% # attempts to use FU when none available
system.cpu00.iq.fu_full::SimdFloatAdd               0      0.00%     48.74% # attempts to use FU when none available
system.cpu00.iq.fu_full::SimdFloatAlu               0      0.00%     48.74% # attempts to use FU when none available
system.cpu00.iq.fu_full::SimdFloatCmp               0      0.00%     48.74% # attempts to use FU when none available
system.cpu00.iq.fu_full::SimdFloatCvt               0      0.00%     48.74% # attempts to use FU when none available
system.cpu00.iq.fu_full::SimdFloatDiv               0      0.00%     48.74% # attempts to use FU when none available
system.cpu00.iq.fu_full::SimdFloatMisc              0      0.00%     48.74% # attempts to use FU when none available
system.cpu00.iq.fu_full::SimdFloatMult              0      0.00%     48.74% # attempts to use FU when none available
system.cpu00.iq.fu_full::SimdFloatMultAcc            0      0.00%     48.74% # attempts to use FU when none available
system.cpu00.iq.fu_full::SimdFloatSqrt              0      0.00%     48.74% # attempts to use FU when none available
system.cpu00.iq.fu_full::MemRead                 9644     31.27%     80.01% # attempts to use FU when none available
system.cpu00.iq.fu_full::MemWrite                6166     19.99%    100.00% # attempts to use FU when none available
system.cpu00.iq.fu_full::IprAccess                  0      0.00%    100.00% # attempts to use FU when none available
system.cpu00.iq.fu_full::InstPrefetch               0      0.00%    100.00% # attempts to use FU when none available
system.cpu00.iq.FU_type_0::No_OpClass               0      0.00%      0.00% # Type of FU issued
system.cpu00.iq.FU_type_0::IntAlu              551690     57.91%     57.91% # Type of FU issued
system.cpu00.iq.FU_type_0::IntMult              12789      1.34%     59.25% # Type of FU issued
system.cpu00.iq.FU_type_0::IntDiv                   0      0.00%     59.25% # Type of FU issued
system.cpu00.iq.FU_type_0::FloatAdd             35723      3.75%     63.00% # Type of FU issued
system.cpu00.iq.FU_type_0::FloatCmp                 8      0.00%     63.00% # Type of FU issued
system.cpu00.iq.FU_type_0::FloatCvt                 0      0.00%     63.00% # Type of FU issued
system.cpu00.iq.FU_type_0::FloatMult            37115      3.90%     66.90% # Type of FU issued
system.cpu00.iq.FU_type_0::FloatDiv                16      0.00%     66.90% # Type of FU issued
system.cpu00.iq.FU_type_0::FloatSqrt                0      0.00%     66.90% # Type of FU issued
system.cpu00.iq.FU_type_0::SimdAdd                  0      0.00%     66.90% # Type of FU issued
system.cpu00.iq.FU_type_0::SimdAddAcc               0      0.00%     66.90% # Type of FU issued
system.cpu00.iq.FU_type_0::SimdAlu                  0      0.00%     66.90% # Type of FU issued
system.cpu00.iq.FU_type_0::SimdCmp                  0      0.00%     66.90% # Type of FU issued
system.cpu00.iq.FU_type_0::SimdCvt                  0      0.00%     66.90% # Type of FU issued
system.cpu00.iq.FU_type_0::SimdMisc                 0      0.00%     66.90% # Type of FU issued
system.cpu00.iq.FU_type_0::SimdMult                 0      0.00%     66.90% # Type of FU issued
system.cpu00.iq.FU_type_0::SimdMultAcc              0      0.00%     66.90% # Type of FU issued
system.cpu00.iq.FU_type_0::SimdShift                0      0.00%     66.90% # Type of FU issued
system.cpu00.iq.FU_type_0::SimdShiftAcc             0      0.00%     66.90% # Type of FU issued
system.cpu00.iq.FU_type_0::SimdSqrt                 0      0.00%     66.90% # Type of FU issued
system.cpu00.iq.FU_type_0::SimdFloatAdd             0      0.00%     66.90% # Type of FU issued
system.cpu00.iq.FU_type_0::SimdFloatAlu             0      0.00%     66.90% # Type of FU issued
system.cpu00.iq.FU_type_0::SimdFloatCmp             0      0.00%     66.90% # Type of FU issued
system.cpu00.iq.FU_type_0::SimdFloatCvt             0      0.00%     66.90% # Type of FU issued
system.cpu00.iq.FU_type_0::SimdFloatDiv             0      0.00%     66.90% # Type of FU issued
system.cpu00.iq.FU_type_0::SimdFloatMisc            0      0.00%     66.90% # Type of FU issued
system.cpu00.iq.FU_type_0::SimdFloatMult            0      0.00%     66.90% # Type of FU issued
system.cpu00.iq.FU_type_0::SimdFloatMultAcc            0      0.00%     66.90% # Type of FU issued
system.cpu00.iq.FU_type_0::SimdFloatSqrt            0      0.00%     66.90% # Type of FU issued
system.cpu00.iq.FU_type_0::MemRead             184831     19.40%     86.30% # Type of FU issued
system.cpu00.iq.FU_type_0::MemWrite            130530     13.70%    100.00% # Type of FU issued
system.cpu00.iq.FU_type_0::IprAccess                0      0.00%    100.00% # Type of FU issued
system.cpu00.iq.FU_type_0::InstPrefetch             0      0.00%    100.00% # Type of FU issued
system.cpu00.iq.FU_type_0::total               952702                       # Type of FU issued
system.cpu00.iq.rate                         0.945714                       # Inst issue rate
system.cpu00.iq.fu_busy_cnt                     30841                       # FU busy when requested
system.cpu00.iq.fu_busy_rate                 0.032372                       # FU busy rate (busy events/executed inst)
system.cpu00.iq.int_inst_queue_reads          2505709                       # Number of integer instruction queue reads
system.cpu00.iq.int_inst_queue_writes          950259                       # Number of integer instruction queue writes
system.cpu00.iq.int_inst_queue_wakeup_accesses       814510                       # Number of integer instruction queue wakeup accesses
system.cpu00.iq.fp_inst_queue_reads            243404                       # Number of floating instruction queue reads
system.cpu00.iq.fp_inst_queue_writes           123304                       # Number of floating instruction queue writes
system.cpu00.iq.fp_inst_queue_wakeup_accesses       116958                       # Number of floating instruction queue wakeup accesses
system.cpu00.iq.int_alu_accesses               858525                       # Number of integer alu accesses
system.cpu00.iq.fp_alu_accesses                125018                       # Number of floating point alu accesses
system.cpu00.iew.lsq.thread0.forwLoads          21155                       # Number of loads that had data forwarded from stores
system.cpu00.iew.lsq.thread0.invAddrLoads            0                       # Number of loads ignored due to an invalid address
system.cpu00.iew.lsq.thread0.squashedLoads        18708                       # Number of loads squashed
system.cpu00.iew.lsq.thread0.ignoredResponses           69                       # Number of memory responses ignored because the instruction is squashed
system.cpu00.iew.lsq.thread0.memOrderViolation          430                       # Number of memory ordering violations
system.cpu00.iew.lsq.thread0.squashedStores        15791                       # Number of stores squashed
system.cpu00.iew.lsq.thread0.invAddrSwpfs            0                       # Number of software prefetches ignored due to an invalid address
system.cpu00.iew.lsq.thread0.blockedLoads            0                       # Number of blocked loads due to partial load-store forwarding
system.cpu00.iew.lsq.thread0.rescheduledLoads          207                       # Number of loads that were rescheduled
system.cpu00.iew.lsq.thread0.cacheBlocked         9658                       # Number of times an access to memory failed due to the cache being blocked
system.cpu00.iew.iewIdleCycles                      0                       # Number of cycles IEW is idle
system.cpu00.iew.iewSquashCycles                 4617                       # Number of cycles IEW is squashing
system.cpu00.iew.iewBlockCycles                 21995                       # Number of cycles IEW is blocking
system.cpu00.iew.iewUnblockCycles               65446                       # Number of cycles IEW is unblocking
system.cpu00.iew.iewDispatchedInsts           1079052                       # Number of instructions dispatched to IQ
system.cpu00.iew.iewDispSquashedInsts            1564                       # Number of squashed instructions skipped by dispatch
system.cpu00.iew.iewDispLoadInsts              179661                       # Number of dispatched load instructions
system.cpu00.iew.iewDispStoreInsts             135310                       # Number of dispatched store instructions
system.cpu00.iew.iewDispNonSpecInsts             1560                       # Number of dispatched non-speculative instructions
system.cpu00.iew.iewIQFullEvents                  103                       # Number of times the IQ has become full, causing a stall
system.cpu00.iew.iewLSQFullEvents               65235                       # Number of times the LSQ has become full, causing a stall
system.cpu00.iew.memOrderViolationEvents          430                       # Number of memory order violations
system.cpu00.iew.predictedTakenIncorrect         1585                       # Number of branches that were predicted taken incorrectly
system.cpu00.iew.predictedNotTakenIncorrect         3124                       # Number of branches that were predicted not taken incorrectly
system.cpu00.iew.branchMispredicts               4709                       # Number of branch mispredicts detected at execute
system.cpu00.iew.iewExecutedInsts              944988                       # Number of executed instructions
system.cpu00.iew.iewExecLoadInsts              181574                       # Number of load instructions executed
system.cpu00.iew.iewExecSquashedInsts            7714                       # Number of squashed instructions skipped in execute
system.cpu00.iew.exec_swp                           0                       # number of swp insts executed
system.cpu00.iew.exec_nop                      107577                       # number of nop insts executed
system.cpu00.iew.exec_refs                     310625                       # number of memory reference insts executed
system.cpu00.iew.exec_branches                 110533                       # Number of branches executed
system.cpu00.iew.exec_stores                   129051                       # Number of stores executed
system.cpu00.iew.exec_rate                   0.938057                       # Inst execution rate
system.cpu00.iew.wb_sent                       935087                       # cumulative count of insts sent to commit
system.cpu00.iew.wb_count                      931468                       # cumulative count of insts written-back
system.cpu00.iew.wb_producers                  546034                       # num instructions producing a value
system.cpu00.iew.wb_consumers                  777863                       # num instructions consuming a value
system.cpu00.iew.wb_rate                     0.924636                       # insts written-back per cycle
system.cpu00.iew.wb_fanout                   0.701967                       # average fanout of values written-back
system.cpu00.commit.commitSquashedInsts        105849                       # The number of squashed insts skipped by commit
system.cpu00.commit.commitNonSpecStalls          2371                       # The number of times commit has been forced to stall to communicate backwards
system.cpu00.commit.branchMispredicts            3932                       # The number of times a branch was mispredicted
system.cpu00.commit.committed_per_cycle::samples       794723                       # Number of insts commited each cycle
system.cpu00.commit.committed_per_cycle::mean     1.218557                       # Number of insts commited each cycle
system.cpu00.commit.committed_per_cycle::stdev     2.311073                       # Number of insts commited each cycle
system.cpu00.commit.committed_per_cycle::underflows            0      0.00%      0.00% # Number of insts commited each cycle
system.cpu00.commit.committed_per_cycle::0       546325     68.74%     68.74% # Number of insts commited each cycle
system.cpu00.commit.committed_per_cycle::1        51386      6.47%     75.21% # Number of insts commited each cycle
system.cpu00.commit.committed_per_cycle::2        51302      6.46%     81.67% # Number of insts commited each cycle
system.cpu00.commit.committed_per_cycle::3        30267      3.81%     85.47% # Number of insts commited each cycle
system.cpu00.commit.committed_per_cycle::4        35596      4.48%     89.95% # Number of insts commited each cycle
system.cpu00.commit.committed_per_cycle::5         8850      1.11%     91.07% # Number of insts commited each cycle
system.cpu00.commit.committed_per_cycle::6        12963      1.63%     92.70% # Number of insts commited each cycle
system.cpu00.commit.committed_per_cycle::7         5060      0.64%     93.33% # Number of insts commited each cycle
system.cpu00.commit.committed_per_cycle::8        52974      6.67%    100.00% # Number of insts commited each cycle
system.cpu00.commit.committed_per_cycle::overflows            0      0.00%    100.00% # Number of insts commited each cycle
system.cpu00.commit.committed_per_cycle::min_value            0                       # Number of insts commited each cycle
system.cpu00.commit.committed_per_cycle::max_value            8                       # Number of insts commited each cycle
system.cpu00.commit.committed_per_cycle::total       794723                       # Number of insts commited each cycle
system.cpu00.commit.committedInsts             968415                       # Number of instructions committed
system.cpu00.commit.committedOps               968415                       # Number of ops (including micro ops) committed
system.cpu00.commit.swp_count                       0                       # Number of s/w prefetches committed
system.cpu00.commit.refs                       280472                       # Number of memory references committed
system.cpu00.commit.loads                      160953                       # Number of loads committed
system.cpu00.commit.membars                      1035                       # Number of memory barriers committed
system.cpu00.commit.branches                   100087                       # Number of branches committed
system.cpu00.commit.fp_insts                   116058                       # Number of committed floating point instructions.
system.cpu00.commit.int_insts                  791935                       # Number of committed integer instructions.
system.cpu00.commit.function_calls              22217                       # Number of function calls committed.
system.cpu00.commit.op_class_0::No_OpClass        98611     10.18%     10.18% # Class of committed instruction
system.cpu00.commit.op_class_0::IntAlu         503170     51.96%     62.14% # Class of committed instruction
system.cpu00.commit.op_class_0::IntMult         12689      1.31%     63.45% # Class of committed instruction
system.cpu00.commit.op_class_0::IntDiv              0      0.00%     63.45% # Class of committed instruction
system.cpu00.commit.op_class_0::FloatAdd        35480      3.66%     67.11% # Class of committed instruction
system.cpu00.commit.op_class_0::FloatCmp            8      0.00%     67.12% # Class of committed instruction
system.cpu00.commit.op_class_0::FloatCvt            0      0.00%     67.12% # Class of committed instruction
system.cpu00.commit.op_class_0::FloatMult        36935      3.81%     70.93% # Class of committed instruction
system.cpu00.commit.op_class_0::FloatDiv           14      0.00%     70.93% # Class of committed instruction
system.cpu00.commit.op_class_0::FloatSqrt            0      0.00%     70.93% # Class of committed instruction
system.cpu00.commit.op_class_0::SimdAdd             0      0.00%     70.93% # Class of committed instruction
system.cpu00.commit.op_class_0::SimdAddAcc            0      0.00%     70.93% # Class of committed instruction
system.cpu00.commit.op_class_0::SimdAlu             0      0.00%     70.93% # Class of committed instruction
system.cpu00.commit.op_class_0::SimdCmp             0      0.00%     70.93% # Class of committed instruction
system.cpu00.commit.op_class_0::SimdCvt             0      0.00%     70.93% # Class of committed instruction
system.cpu00.commit.op_class_0::SimdMisc            0      0.00%     70.93% # Class of committed instruction
system.cpu00.commit.op_class_0::SimdMult            0      0.00%     70.93% # Class of committed instruction
system.cpu00.commit.op_class_0::SimdMultAcc            0      0.00%     70.93% # Class of committed instruction
system.cpu00.commit.op_class_0::SimdShift            0      0.00%     70.93% # Class of committed instruction
system.cpu00.commit.op_class_0::SimdShiftAcc            0      0.00%     70.93% # Class of committed instruction
system.cpu00.commit.op_class_0::SimdSqrt            0      0.00%     70.93% # Class of committed instruction
system.cpu00.commit.op_class_0::SimdFloatAdd            0      0.00%     70.93% # Class of committed instruction
system.cpu00.commit.op_class_0::SimdFloatAlu            0      0.00%     70.93% # Class of committed instruction
system.cpu00.commit.op_class_0::SimdFloatCmp            0      0.00%     70.93% # Class of committed instruction
system.cpu00.commit.op_class_0::SimdFloatCvt            0      0.00%     70.93% # Class of committed instruction
system.cpu00.commit.op_class_0::SimdFloatDiv            0      0.00%     70.93% # Class of committed instruction
system.cpu00.commit.op_class_0::SimdFloatMisc            0      0.00%     70.93% # Class of committed instruction
system.cpu00.commit.op_class_0::SimdFloatMult            0      0.00%     70.93% # Class of committed instruction
system.cpu00.commit.op_class_0::SimdFloatMultAcc            0      0.00%     70.93% # Class of committed instruction
system.cpu00.commit.op_class_0::SimdFloatSqrt            0      0.00%     70.93% # Class of committed instruction
system.cpu00.commit.op_class_0::MemRead        161988     16.73%     87.66% # Class of committed instruction
system.cpu00.commit.op_class_0::MemWrite       119520     12.34%    100.00% # Class of committed instruction
system.cpu00.commit.op_class_0::IprAccess            0      0.00%    100.00% # Class of committed instruction
system.cpu00.commit.op_class_0::InstPrefetch            0      0.00%    100.00% # Class of committed instruction
system.cpu00.commit.op_class_0::total          968415                       # Class of committed instruction
system.cpu00.commit.bw_lim_events               52974                       # number cycles where commit BW limit reached
system.cpu00.rob.rob_reads                    1812035                       # The number of ROB reads
system.cpu00.rob.rob_writes                   2165190                       # The number of ROB writes
system.cpu00.timesIdled                          1389                       # Number of times that the entire CPU went into an idle state and unscheduled itself
system.cpu00.idleCycles                        196115                       # Total number of cycles that the CPU has spent unscheduled due to idling
system.cpu00.quiesceCycles                      91969                       # Total number of cycles that CPU has spent quiesced or waiting for an interrupt
system.cpu00.committedInsts                    869804                       # Number of Instructions Simulated
system.cpu00.committedOps                      869804                       # Number of Ops (including micro ops) Simulated
system.cpu00.cpi                             1.158179                       # CPI: Cycles Per Instruction
system.cpu00.cpi_total                       1.158179                       # CPI: Total CPI of All Threads
system.cpu00.ipc                             0.863424                       # IPC: Instructions Per Cycle
system.cpu00.ipc_total                       0.863424                       # IPC: Total IPC of All Threads
system.cpu00.int_regfile_reads                1141490                       # number of integer regfile reads
system.cpu00.int_regfile_writes                613231                       # number of integer regfile writes
system.cpu00.fp_regfile_reads                  151790                       # number of floating regfile reads
system.cpu00.fp_regfile_writes                 102911                       # number of floating regfile writes
system.cpu00.misc_regfile_reads                  5000                       # number of misc regfile reads
system.cpu00.misc_regfile_writes                 2250                       # number of misc regfile writes
system.cpu00.dcache.tags.replacements           12009                       # number of replacements
system.cpu00.dcache.tags.tagsinuse         123.759762                       # Cycle average of tags in use
system.cpu00.dcache.tags.total_refs            228662                       # Total number of references to valid blocks.
system.cpu00.dcache.tags.sampled_refs           12136                       # Sample count of references to valid blocks.
system.cpu00.dcache.tags.avg_refs           18.841628                       # Average number of references to valid blocks.
system.cpu00.dcache.tags.warmup_cycle        90049340                       # Cycle when the warmup percentage was hit.
system.cpu00.dcache.tags.occ_blocks::cpu00.data   123.759762                       # Average occupied blocks per requestor
system.cpu00.dcache.tags.occ_percent::cpu00.data     0.966873                       # Average percentage of cache occupancy
system.cpu00.dcache.tags.occ_percent::total     0.966873                       # Average percentage of cache occupancy
system.cpu00.dcache.tags.occ_task_id_blocks::1024          127                       # Occupied blocks per task id
system.cpu00.dcache.tags.age_task_id_blocks_1024::0           68                       # Occupied blocks per task id
system.cpu00.dcache.tags.age_task_id_blocks_1024::1           51                       # Occupied blocks per task id
system.cpu00.dcache.tags.age_task_id_blocks_1024::2            8                       # Occupied blocks per task id
system.cpu00.dcache.tags.occ_task_id_percent::1024     0.992188                       # Percentage of cache occupancy per task id
system.cpu00.dcache.tags.tag_accesses          555177                       # Number of tag accesses
system.cpu00.dcache.tags.data_accesses         555177                       # Number of data accesses
system.cpu00.dcache.ReadReq_hits::cpu00.data       141855                       # number of ReadReq hits
system.cpu00.dcache.ReadReq_hits::total        141855                       # number of ReadReq hits
system.cpu00.dcache.WriteReq_hits::cpu00.data        84623                       # number of WriteReq hits
system.cpu00.dcache.WriteReq_hits::total        84623                       # number of WriteReq hits
system.cpu00.dcache.LoadLockedReq_hits::cpu00.data          933                       # number of LoadLockedReq hits
system.cpu00.dcache.LoadLockedReq_hits::total          933                       # number of LoadLockedReq hits
system.cpu00.dcache.StoreCondReq_hits::cpu00.data         1099                       # number of StoreCondReq hits
system.cpu00.dcache.StoreCondReq_hits::total         1099                       # number of StoreCondReq hits
system.cpu00.dcache.demand_hits::cpu00.data       226478                       # number of demand (read+write) hits
system.cpu00.dcache.demand_hits::total         226478                       # number of demand (read+write) hits
system.cpu00.dcache.overall_hits::cpu00.data       226478                       # number of overall hits
system.cpu00.dcache.overall_hits::total        226478                       # number of overall hits
system.cpu00.dcache.ReadReq_misses::cpu00.data         8837                       # number of ReadReq misses
system.cpu00.dcache.ReadReq_misses::total         8837                       # number of ReadReq misses
system.cpu00.dcache.WriteReq_misses::cpu00.data        33774                       # number of WriteReq misses
system.cpu00.dcache.WriteReq_misses::total        33774                       # number of WriteReq misses
system.cpu00.dcache.LoadLockedReq_misses::cpu00.data          254                       # number of LoadLockedReq misses
system.cpu00.dcache.LoadLockedReq_misses::total          254                       # number of LoadLockedReq misses
system.cpu00.dcache.StoreCondReq_misses::cpu00.data           23                       # number of StoreCondReq misses
system.cpu00.dcache.StoreCondReq_misses::total           23                       # number of StoreCondReq misses
system.cpu00.dcache.demand_misses::cpu00.data        42611                       # number of demand (read+write) misses
system.cpu00.dcache.demand_misses::total        42611                       # number of demand (read+write) misses
system.cpu00.dcache.overall_misses::cpu00.data        42611                       # number of overall misses
system.cpu00.dcache.overall_misses::total        42611                       # number of overall misses
system.cpu00.dcache.ReadReq_miss_latency::cpu00.data    402451980                       # number of ReadReq miss cycles
system.cpu00.dcache.ReadReq_miss_latency::total    402451980                       # number of ReadReq miss cycles
system.cpu00.dcache.WriteReq_miss_latency::cpu00.data   5418526491                       # number of WriteReq miss cycles
system.cpu00.dcache.WriteReq_miss_latency::total   5418526491                       # number of WriteReq miss cycles
system.cpu00.dcache.LoadLockedReq_miss_latency::cpu00.data      2468560                       # number of LoadLockedReq miss cycles
system.cpu00.dcache.LoadLockedReq_miss_latency::total      2468560                       # number of LoadLockedReq miss cycles
system.cpu00.dcache.StoreCondReq_miss_latency::cpu00.data       384680                       # number of StoreCondReq miss cycles
system.cpu00.dcache.StoreCondReq_miss_latency::total       384680                       # number of StoreCondReq miss cycles
system.cpu00.dcache.demand_miss_latency::cpu00.data   5820978471                       # number of demand (read+write) miss cycles
system.cpu00.dcache.demand_miss_latency::total   5820978471                       # number of demand (read+write) miss cycles
system.cpu00.dcache.overall_miss_latency::cpu00.data   5820978471                       # number of overall miss cycles
system.cpu00.dcache.overall_miss_latency::total   5820978471                       # number of overall miss cycles
system.cpu00.dcache.ReadReq_accesses::cpu00.data       150692                       # number of ReadReq accesses(hits+misses)
system.cpu00.dcache.ReadReq_accesses::total       150692                       # number of ReadReq accesses(hits+misses)
system.cpu00.dcache.WriteReq_accesses::cpu00.data       118397                       # number of WriteReq accesses(hits+misses)
system.cpu00.dcache.WriteReq_accesses::total       118397                       # number of WriteReq accesses(hits+misses)
system.cpu00.dcache.LoadLockedReq_accesses::cpu00.data         1187                       # number of LoadLockedReq accesses(hits+misses)
system.cpu00.dcache.LoadLockedReq_accesses::total         1187                       # number of LoadLockedReq accesses(hits+misses)
system.cpu00.dcache.StoreCondReq_accesses::cpu00.data         1122                       # number of StoreCondReq accesses(hits+misses)
system.cpu00.dcache.StoreCondReq_accesses::total         1122                       # number of StoreCondReq accesses(hits+misses)
system.cpu00.dcache.demand_accesses::cpu00.data       269089                       # number of demand (read+write) accesses
system.cpu00.dcache.demand_accesses::total       269089                       # number of demand (read+write) accesses
system.cpu00.dcache.overall_accesses::cpu00.data       269089                       # number of overall (read+write) accesses
system.cpu00.dcache.overall_accesses::total       269089                       # number of overall (read+write) accesses
system.cpu00.dcache.ReadReq_miss_rate::cpu00.data     0.058643                       # miss rate for ReadReq accesses
system.cpu00.dcache.ReadReq_miss_rate::total     0.058643                       # miss rate for ReadReq accesses
system.cpu00.dcache.WriteReq_miss_rate::cpu00.data     0.285261                       # miss rate for WriteReq accesses
system.cpu00.dcache.WriteReq_miss_rate::total     0.285261                       # miss rate for WriteReq accesses
system.cpu00.dcache.LoadLockedReq_miss_rate::cpu00.data     0.213985                       # miss rate for LoadLockedReq accesses
system.cpu00.dcache.LoadLockedReq_miss_rate::total     0.213985                       # miss rate for LoadLockedReq accesses
system.cpu00.dcache.StoreCondReq_miss_rate::cpu00.data     0.020499                       # miss rate for StoreCondReq accesses
system.cpu00.dcache.StoreCondReq_miss_rate::total     0.020499                       # miss rate for StoreCondReq accesses
system.cpu00.dcache.demand_miss_rate::cpu00.data     0.158353                       # miss rate for demand accesses
system.cpu00.dcache.demand_miss_rate::total     0.158353                       # miss rate for demand accesses
system.cpu00.dcache.overall_miss_rate::cpu00.data     0.158353                       # miss rate for overall accesses
system.cpu00.dcache.overall_miss_rate::total     0.158353                       # miss rate for overall accesses
system.cpu00.dcache.ReadReq_avg_miss_latency::cpu00.data 45541.697409                       # average ReadReq miss latency
system.cpu00.dcache.ReadReq_avg_miss_latency::total 45541.697409                       # average ReadReq miss latency
system.cpu00.dcache.WriteReq_avg_miss_latency::cpu00.data 160434.846065                       # average WriteReq miss latency
system.cpu00.dcache.WriteReq_avg_miss_latency::total 160434.846065                       # average WriteReq miss latency
system.cpu00.dcache.LoadLockedReq_avg_miss_latency::cpu00.data  9718.740157                       # average LoadLockedReq miss latency
system.cpu00.dcache.LoadLockedReq_avg_miss_latency::total  9718.740157                       # average LoadLockedReq miss latency
system.cpu00.dcache.StoreCondReq_avg_miss_latency::cpu00.data 16725.217391                       # average StoreCondReq miss latency
system.cpu00.dcache.StoreCondReq_avg_miss_latency::total 16725.217391                       # average StoreCondReq miss latency
system.cpu00.dcache.demand_avg_miss_latency::cpu00.data 136607.412898                       # average overall miss latency
system.cpu00.dcache.demand_avg_miss_latency::total 136607.412898                       # average overall miss latency
system.cpu00.dcache.overall_avg_miss_latency::cpu00.data 136607.412898                       # average overall miss latency
system.cpu00.dcache.overall_avg_miss_latency::total 136607.412898                       # average overall miss latency
system.cpu00.dcache.blocked_cycles::no_mshrs       155710                       # number of cycles access was blocked
system.cpu00.dcache.blocked_cycles::no_targets            0                       # number of cycles access was blocked
system.cpu00.dcache.blocked::no_mshrs            2927                       # number of cycles access was blocked
system.cpu00.dcache.blocked::no_targets             0                       # number of cycles access was blocked
system.cpu00.dcache.avg_blocked_cycles::no_mshrs    53.197813                       # average number of cycles each access was blocked
system.cpu00.dcache.avg_blocked_cycles::no_targets          nan                       # average number of cycles each access was blocked
system.cpu00.dcache.fast_writes                     0                       # number of fast writes performed
system.cpu00.dcache.cache_copies                    0                       # number of cache copies performed
system.cpu00.dcache.writebacks::writebacks         8937                       # number of writebacks
system.cpu00.dcache.writebacks::total            8937                       # number of writebacks
system.cpu00.dcache.ReadReq_mshr_hits::cpu00.data         3000                       # number of ReadReq MSHR hits
system.cpu00.dcache.ReadReq_mshr_hits::total         3000                       # number of ReadReq MSHR hits
system.cpu00.dcache.WriteReq_mshr_hits::cpu00.data        27266                       # number of WriteReq MSHR hits
system.cpu00.dcache.WriteReq_mshr_hits::total        27266                       # number of WriteReq MSHR hits
system.cpu00.dcache.LoadLockedReq_mshr_hits::cpu00.data          137                       # number of LoadLockedReq MSHR hits
system.cpu00.dcache.LoadLockedReq_mshr_hits::total          137                       # number of LoadLockedReq MSHR hits
system.cpu00.dcache.demand_mshr_hits::cpu00.data        30266                       # number of demand (read+write) MSHR hits
system.cpu00.dcache.demand_mshr_hits::total        30266                       # number of demand (read+write) MSHR hits
system.cpu00.dcache.overall_mshr_hits::cpu00.data        30266                       # number of overall MSHR hits
system.cpu00.dcache.overall_mshr_hits::total        30266                       # number of overall MSHR hits
system.cpu00.dcache.ReadReq_mshr_misses::cpu00.data         5837                       # number of ReadReq MSHR misses
system.cpu00.dcache.ReadReq_mshr_misses::total         5837                       # number of ReadReq MSHR misses
system.cpu00.dcache.WriteReq_mshr_misses::cpu00.data         6508                       # number of WriteReq MSHR misses
system.cpu00.dcache.WriteReq_mshr_misses::total         6508                       # number of WriteReq MSHR misses
system.cpu00.dcache.LoadLockedReq_mshr_misses::cpu00.data          117                       # number of LoadLockedReq MSHR misses
system.cpu00.dcache.LoadLockedReq_mshr_misses::total          117                       # number of LoadLockedReq MSHR misses
system.cpu00.dcache.StoreCondReq_mshr_misses::cpu00.data           23                       # number of StoreCondReq MSHR misses
system.cpu00.dcache.StoreCondReq_mshr_misses::total           23                       # number of StoreCondReq MSHR misses
system.cpu00.dcache.demand_mshr_misses::cpu00.data        12345                       # number of demand (read+write) MSHR misses
system.cpu00.dcache.demand_mshr_misses::total        12345                       # number of demand (read+write) MSHR misses
system.cpu00.dcache.overall_mshr_misses::cpu00.data        12345                       # number of overall MSHR misses
system.cpu00.dcache.overall_mshr_misses::total        12345                       # number of overall MSHR misses
system.cpu00.dcache.ReadReq_mshr_miss_latency::cpu00.data    234112000                       # number of ReadReq MSHR miss cycles
system.cpu00.dcache.ReadReq_mshr_miss_latency::total    234112000                       # number of ReadReq MSHR miss cycles
system.cpu00.dcache.WriteReq_mshr_miss_latency::cpu00.data   1145552158                       # number of WriteReq MSHR miss cycles
system.cpu00.dcache.WriteReq_mshr_miss_latency::total   1145552158                       # number of WriteReq MSHR miss cycles
system.cpu00.dcache.LoadLockedReq_mshr_miss_latency::cpu00.data       902700                       # number of LoadLockedReq MSHR miss cycles
system.cpu00.dcache.LoadLockedReq_mshr_miss_latency::total       902700                       # number of LoadLockedReq MSHR miss cycles
system.cpu00.dcache.StoreCondReq_mshr_miss_latency::cpu00.data       357540                       # number of StoreCondReq MSHR miss cycles
system.cpu00.dcache.StoreCondReq_mshr_miss_latency::total       357540                       # number of StoreCondReq MSHR miss cycles
system.cpu00.dcache.demand_mshr_miss_latency::cpu00.data   1379664158                       # number of demand (read+write) MSHR miss cycles
system.cpu00.dcache.demand_mshr_miss_latency::total   1379664158                       # number of demand (read+write) MSHR miss cycles
system.cpu00.dcache.overall_mshr_miss_latency::cpu00.data   1379664158                       # number of overall MSHR miss cycles
system.cpu00.dcache.overall_mshr_miss_latency::total   1379664158                       # number of overall MSHR miss cycles
system.cpu00.dcache.ReadReq_mshr_miss_rate::cpu00.data     0.038735                       # mshr miss rate for ReadReq accesses
system.cpu00.dcache.ReadReq_mshr_miss_rate::total     0.038735                       # mshr miss rate for ReadReq accesses
system.cpu00.dcache.WriteReq_mshr_miss_rate::cpu00.data     0.054968                       # mshr miss rate for WriteReq accesses
system.cpu00.dcache.WriteReq_mshr_miss_rate::total     0.054968                       # mshr miss rate for WriteReq accesses
system.cpu00.dcache.LoadLockedReq_mshr_miss_rate::cpu00.data     0.098568                       # mshr miss rate for LoadLockedReq accesses
system.cpu00.dcache.LoadLockedReq_mshr_miss_rate::total     0.098568                       # mshr miss rate for LoadLockedReq accesses
system.cpu00.dcache.StoreCondReq_mshr_miss_rate::cpu00.data     0.020499                       # mshr miss rate for StoreCondReq accesses
system.cpu00.dcache.StoreCondReq_mshr_miss_rate::total     0.020499                       # mshr miss rate for StoreCondReq accesses
system.cpu00.dcache.demand_mshr_miss_rate::cpu00.data     0.045877                       # mshr miss rate for demand accesses
system.cpu00.dcache.demand_mshr_miss_rate::total     0.045877                       # mshr miss rate for demand accesses
system.cpu00.dcache.overall_mshr_miss_rate::cpu00.data     0.045877                       # mshr miss rate for overall accesses
system.cpu00.dcache.overall_mshr_miss_rate::total     0.045877                       # mshr miss rate for overall accesses
system.cpu00.dcache.ReadReq_avg_mshr_miss_latency::cpu00.data 40108.274799                       # average ReadReq mshr miss latency
system.cpu00.dcache.ReadReq_avg_mshr_miss_latency::total 40108.274799                       # average ReadReq mshr miss latency
system.cpu00.dcache.WriteReq_avg_mshr_miss_latency::cpu00.data 176022.150891                       # average WriteReq mshr miss latency
system.cpu00.dcache.WriteReq_avg_mshr_miss_latency::total 176022.150891                       # average WriteReq mshr miss latency
[...]
system.tol2bus.pkt_count_system.cpu06.dcache.mem_side::system.l2.cpu_side         3605                       # Packet count per connected master and slave (bytes)
system.tol2bus.pkt_count_system.cpu07.icache.mem_side::system.l2.cpu_side         3153                       # Packet count per connected master and slave (bytes)
system.tol2bus.pkt_count_system.cpu07.dcache.mem_side::system.l2.cpu_side         4565                       # Packet count per connected master and slave (bytes)
system.tol2bus.pkt_count_system.cpu08.icache.mem_side::system.l2.cpu_side         3119                       # Packet count per connected master and slave (bytes)
system.tol2bus.pkt_count_system.cpu08.dcache.mem_side::system.l2.cpu_side         3898                       # Packet count per connected master and slave (bytes)
system.tol2bus.pkt_count_system.cpu09.icache.mem_side::system.l2.cpu_side         1016                       # Packet count per connected master and slave (bytes)
system.tol2bus.pkt_count_system.cpu09.dcache.mem_side::system.l2.cpu_side         1174                       # Packet count per connected master and slave (bytes)
system.tol2bus.pkt_count_system.cpu10.icache.mem_side::system.l2.cpu_side         2693                       # Packet count per connected master and slave (bytes)
system.tol2bus.pkt_count_system.cpu10.dcache.mem_side::system.l2.cpu_side         2639                       # Packet count per connected master and slave (bytes)
system.tol2bus.pkt_count_system.cpu11.icache.mem_side::system.l2.cpu_side         2768                       # Packet count per connected master and slave (bytes)
system.tol2bus.pkt_count_system.cpu11.dcache.mem_side::system.l2.cpu_side         2896                       # Packet count per connected master and slave (bytes)
system.tol2bus.pkt_count_system.cpu12.icache.mem_side::system.l2.cpu_side         3341                       # Packet count per connected master and slave (bytes)
system.tol2bus.pkt_count_system.cpu12.dcache.mem_side::system.l2.cpu_side         4076                       # Packet count per connected master and slave (bytes)
system.tol2bus.pkt_count_system.cpu13.icache.mem_side::system.l2.cpu_side         1234                       # Packet count per connected master and slave (bytes)
system.tol2bus.pkt_count_system.cpu13.dcache.mem_side::system.l2.cpu_side         1186                       # Packet count per connected master and slave (bytes)
system.tol2bus.pkt_count_system.cpu14.icache.mem_side::system.l2.cpu_side         3759                       # Packet count per connected master and slave (bytes)
system.tol2bus.pkt_count_system.cpu14.dcache.mem_side::system.l2.cpu_side         4492                       # Packet count per connected master and slave (bytes)
system.tol2bus.pkt_count_system.cpu15.icache.mem_side::system.l2.cpu_side         2995                       # Packet count per connected master and slave (bytes)
system.tol2bus.pkt_count_system.cpu15.dcache.mem_side::system.l2.cpu_side         4398                       # Packet count per connected master and slave (bytes)
system.tol2bus.pkt_count::total                136653                       # Packet count per connected master and slave (bytes)
system.tol2bus.pkt_size_system.cpu00.icache.mem_side::system.l2.cpu_side       981120                       # Cumulative packet size per connected master and slave (bytes)
system.tol2bus.pkt_size_system.cpu00.dcache.mem_side::system.l2.cpu_side      1347584                       # Cumulative packet size per connected master and slave (bytes)
system.tol2bus.pkt_size_system.cpu01.icache.mem_side::system.l2.cpu_side        63360                       # Cumulative packet size per connected master and slave (bytes)
system.tol2bus.pkt_size_system.cpu01.dcache.mem_side::system.l2.cpu_side        38272                       # Cumulative packet size per connected master and slave (bytes)
system.tol2bus.pkt_size_system.cpu02.icache.mem_side::system.l2.cpu_side       109056                       # Cumulative packet size per connected master and slave (bytes)
system.tol2bus.pkt_size_system.cpu02.dcache.mem_side::system.l2.cpu_side        77760                       # Cumulative packet size per connected master and slave (bytes)
system.tol2bus.pkt_size_system.cpu03.icache.mem_side::system.l2.cpu_side        34944                       # Cumulative packet size per connected master and slave (bytes)
system.tol2bus.pkt_size_system.cpu03.dcache.mem_side::system.l2.cpu_side        31040                       # Cumulative packet size per connected master and slave (bytes)
system.tol2bus.pkt_size_system.cpu04.icache.mem_side::system.l2.cpu_side        31232                       # Cumulative packet size per connected master and slave (bytes)
system.tol2bus.pkt_size_system.cpu04.dcache.mem_side::system.l2.cpu_side        33216                       # Cumulative packet size per connected master and slave (bytes)
system.tol2bus.pkt_size_system.cpu05.icache.mem_side::system.l2.cpu_side        39744                       # Cumulative packet size per connected master and slave (bytes)
system.tol2bus.pkt_size_system.cpu05.dcache.mem_side::system.l2.cpu_side        27584                       # Cumulative packet size per connected master and slave (bytes)
system.tol2bus.pkt_size_system.cpu06.icache.mem_side::system.l2.cpu_side       105984                       # Cumulative packet size per connected master and slave (bytes)
system.tol2bus.pkt_size_system.cpu06.dcache.mem_side::system.l2.cpu_side        66880                       # Cumulative packet size per connected master and slave (bytes)
system.tol2bus.pkt_size_system.cpu07.icache.mem_side::system.l2.cpu_side       124096                       # Cumulative packet size per connected master and slave (bytes)
system.tol2bus.pkt_size_system.cpu07.dcache.mem_side::system.l2.cpu_side        78528                       # Cumulative packet size per connected master and slave (bytes)
system.tol2bus.pkt_size_system.cpu08.icache.mem_side::system.l2.cpu_side       122432                       # Cumulative packet size per connected master and slave (bytes)
system.tol2bus.pkt_size_system.cpu08.dcache.mem_side::system.l2.cpu_side        72832                       # Cumulative packet size per connected master and slave (bytes)
system.tol2bus.pkt_size_system.cpu09.icache.mem_side::system.l2.cpu_side        35008                       # Cumulative packet size per connected master and slave (bytes)
system.tol2bus.pkt_size_system.cpu09.dcache.mem_side::system.l2.cpu_side        33792                       # Cumulative packet size per connected master and slave (bytes)
system.tol2bus.pkt_size_system.cpu10.icache.mem_side::system.l2.cpu_side       104768                       # Cumulative packet size per connected master and slave (bytes)
system.tol2bus.pkt_size_system.cpu10.dcache.mem_side::system.l2.cpu_side        54528                       # Cumulative packet size per connected master and slave (bytes)
system.tol2bus.pkt_size_system.cpu11.icache.mem_side::system.l2.cpu_side       107968                       # Cumulative packet size per connected master and slave (bytes)
system.tol2bus.pkt_size_system.cpu11.dcache.mem_side::system.l2.cpu_side        56000                       # Cumulative packet size per connected master and slave (bytes)
system.tol2bus.pkt_size_system.cpu12.icache.mem_side::system.l2.cpu_side       132096                       # Cumulative packet size per connected master and slave (bytes)
system.tol2bus.pkt_size_system.cpu12.dcache.mem_side::system.l2.cpu_side        75776                       # Cumulative packet size per connected master and slave (bytes)
system.tol2bus.pkt_size_system.cpu13.icache.mem_side::system.l2.cpu_side        43456                       # Cumulative packet size per connected master and slave (bytes)
system.tol2bus.pkt_size_system.cpu13.dcache.mem_side::system.l2.cpu_side        32384                       # Cumulative packet size per connected master and slave (bytes)
system.tol2bus.pkt_size_system.cpu14.icache.mem_side::system.l2.cpu_side       149952                       # Cumulative packet size per connected master and slave (bytes)
system.tol2bus.pkt_size_system.cpu14.dcache.mem_side::system.l2.cpu_side        78784                       # Cumulative packet size per connected master and slave (bytes)
system.tol2bus.pkt_size_system.cpu15.icache.mem_side::system.l2.cpu_side       117696                       # Cumulative packet size per connected master and slave (bytes)
system.tol2bus.pkt_size_system.cpu15.dcache.mem_side::system.l2.cpu_side        73280                       # Cumulative packet size per connected master and slave (bytes)
system.tol2bus.pkt_size::total                4481152                       # Cumulative packet size per connected master and slave (bytes)
system.tol2bus.snoops                           10819                       # Total snoops (count)
system.tol2bus.snoop_fanout::samples            54997                       # Request fanout histogram
system.tol2bus.snoop_fanout::mean            2.440424                       # Request fanout histogram
system.tol2bus.snoop_fanout::stdev           3.845539                       # Request fanout histogram
system.tol2bus.snoop_fanout::underflows             0      0.00%      0.00% # Request fanout histogram
system.tol2bus.snoop_fanout::0                  25660     46.66%     46.66% # Request fanout histogram
system.tol2bus.snoop_fanout::1                  11686     21.25%     67.91% # Request fanout histogram
system.tol2bus.snoop_fanout::2                   3285      5.97%     73.88% # Request fanout histogram
system.tol2bus.snoop_fanout::3                   1571      2.86%     76.74% # Request fanout histogram
system.tol2bus.snoop_fanout::4                   1371      2.49%     79.23% # Request fanout histogram
system.tol2bus.snoop_fanout::5                   1299      2.36%     81.59% # Request fanout histogram
system.tol2bus.snoop_fanout::6                   1303      2.37%     83.96% # Request fanout histogram
system.tol2bus.snoop_fanout::7                   1300      2.36%     86.32% # Request fanout histogram
system.tol2bus.snoop_fanout::8                   1213      2.21%     88.53% # Request fanout histogram
system.tol2bus.snoop_fanout::9                   1163      2.11%     90.64% # Request fanout histogram
system.tol2bus.snoop_fanout::10                  1082      1.97%     92.61% # Request fanout histogram
system.tol2bus.snoop_fanout::11                  1183      2.15%     94.76% # Request fanout histogram
system.tol2bus.snoop_fanout::12                   846      1.54%     96.30% # Request fanout histogram
system.tol2bus.snoop_fanout::13                   786      1.43%     97.73% # Request fanout histogram
system.tol2bus.snoop_fanout::14                   759      1.38%     99.11% # Request fanout histogram
system.tol2bus.snoop_fanout::15                   490      0.89%    100.00% # Request fanout histogram
system.tol2bus.snoop_fanout::16                     0      0.00%    100.00% # Request fanout histogram
system.tol2bus.snoop_fanout::17                     0      0.00%    100.00% # Request fanout histogram
system.tol2bus.snoop_fanout::18                     0      0.00%    100.00% # Request fanout histogram
system.tol2bus.snoop_fanout::19                     0      0.00%    100.00% # Request fanout histogram
system.tol2bus.snoop_fanout::20                     0      0.00%    100.00% # Request fanout histogram
system.tol2bus.snoop_fanout::21                     0      0.00%    100.00% # Request fanout histogram
system.tol2bus.snoop_fanout::22                     0      0.00%    100.00% # Request fanout histogram
system.tol2bus.snoop_fanout::23                     0      0.00%    100.00% # Request fanout histogram
system.tol2bus.snoop_fanout::24                     0      0.00%    100.00% # Request fanout histogram
system.tol2bus.snoop_fanout::25                     0      0.00%    100.00% # Request fanout histogram
system.tol2bus.snoop_fanout::26                     0      0.00%    100.00% # Request fanout histogram
system.tol2bus.snoop_fanout::27                     0      0.00%    100.00% # Request fanout histogram
system.tol2bus.snoop_fanout::28                     0      0.00%    100.00% # Request fanout histogram
system.tol2bus.snoop_fanout::29                     0      0.00%    100.00% # Request fanout histogram
system.tol2bus.snoop_fanout::30                     0      0.00%    100.00% # Request fanout histogram
system.tol2bus.snoop_fanout::31                     0      0.00%    100.00% # Request fanout histogram
system.tol2bus.snoop_fanout::32                     0      0.00%    100.00% # Request fanout histogram
system.tol2bus.snoop_fanout::overflows              0      0.00%    100.00% # Request fanout histogram
system.tol2bus.snoop_fanout::min_value              0                       # Request fanout histogram
system.tol2bus.snoop_fanout::max_value             15                       # Request fanout histogram
system.tol2bus.snoop_fanout::total              54997                       # Request fanout histogram
system.tol2bus.reqLayer0.occupancy          174938982                       # Layer occupancy (ticks)
system.tol2bus.reqLayer0.utilization             13.5                       # Layer utilization (%)
system.tol2bus.respLayer0.occupancy          28390356                       # Layer occupancy (ticks)
system.tol2bus.respLayer0.utilization             2.2                       # Layer utilization (%)
system.tol2bus.respLayer1.occupancy          44288626                       # Layer occupancy (ticks)
system.tol2bus.respLayer1.utilization             3.4                       # Layer utilization (%)
system.tol2bus.respLayer2.occupancy           2645685                       # Layer occupancy (ticks)
system.tol2bus.respLayer2.utilization             0.2                       # Layer utilization (%)
system.tol2bus.respLayer3.occupancy           2729866                       # Layer occupancy (ticks)
system.tol2bus.respLayer3.utilization             0.2                       # Layer utilization (%)
system.tol2bus.respLayer4.occupancy           3956794                       # Layer occupancy (ticks)
system.tol2bus.respLayer4.utilization             0.3                       # Layer utilization (%)
system.tol2bus.respLayer5.occupancy           6426154                       # Layer occupancy (ticks)
system.tol2bus.respLayer5.utilization             0.5                       # Layer utilization (%)
system.tol2bus.respLayer6.occupancy           1732564                       # Layer occupancy (ticks)
system.tol2bus.respLayer6.utilization             0.1                       # Layer utilization (%)
system.tol2bus.respLayer7.occupancy           1732205                       # Layer occupancy (ticks)
system.tol2bus.respLayer7.utilization             0.1                       # Layer utilization (%)
system.tol2bus.respLayer8.occupancy           1606158                       # Layer occupancy (ticks)
system.tol2bus.respLayer8.utilization             0.1                       # Layer utilization (%)
system.tol2bus.respLayer9.occupancy           1669570                       # Layer occupancy (ticks)
system.tol2bus.respLayer9.utilization             0.1                       # Layer utilization (%)
system.tol2bus.respLayer10.occupancy          1881375                       # Layer occupancy (ticks)
system.tol2bus.respLayer10.utilization            0.1                       # Layer utilization (%)
system.tol2bus.respLayer11.occupancy          1700326                       # Layer occupancy (ticks)
system.tol2bus.respLayer11.utilization            0.1                       # Layer utilization (%)
system.tol2bus.respLayer12.occupancy          3880689                       # Layer occupancy (ticks)
system.tol2bus.respLayer12.utilization            0.3                       # Layer utilization (%)
system.tol2bus.respLayer13.occupancy          5760633                       # Layer occupancy (ticks)
system.tol2bus.respLayer13.utilization            0.4                       # Layer utilization (%)
system.tol2bus.respLayer14.occupancy          4374152                       # Layer occupancy (ticks)
system.tol2bus.respLayer14.utilization            0.3                       # Layer utilization (%)
system.tol2bus.respLayer15.occupancy          7254060                       # Layer occupancy (ticks)
system.tol2bus.respLayer15.utilization            0.6                       # Layer utilization (%)
system.tol2bus.respLayer16.occupancy          4346280                       # Layer occupancy (ticks)
system.tol2bus.respLayer16.utilization            0.3                       # Layer utilization (%)
system.tol2bus.respLayer17.occupancy          6179537                       # Layer occupancy (ticks)
system.tol2bus.respLayer17.utilization            0.5                       # Layer utilization (%)
system.tol2bus.respLayer18.occupancy          1722755                       # Layer occupancy (ticks)
system.tol2bus.respLayer18.utilization            0.1                       # Layer utilization (%)
system.tol2bus.respLayer19.occupancy          1787974                       # Layer occupancy (ticks)
system.tol2bus.respLayer19.utilization            0.1                       # Layer utilization (%)
system.tol2bus.respLayer20.occupancy          3850389                       # Layer occupancy (ticks)
system.tol2bus.respLayer20.utilization            0.3                       # Layer utilization (%)
system.tol2bus.respLayer21.occupancy          4180637                       # Layer occupancy (ticks)
system.tol2bus.respLayer21.utilization            0.3                       # Layer utilization (%)
system.tol2bus.respLayer22.occupancy          3896595                       # Layer occupancy (ticks)
system.tol2bus.respLayer22.utilization            0.3                       # Layer utilization (%)
system.tol2bus.respLayer23.occupancy          4656701                       # Layer occupancy (ticks)
system.tol2bus.respLayer23.utilization            0.4                       # Layer utilization (%)
system.tol2bus.respLayer24.occupancy          4580993                       # Layer occupancy (ticks)
system.tol2bus.respLayer24.utilization            0.4                       # Layer utilization (%)
system.tol2bus.respLayer25.occupancy          6734406                       # Layer occupancy (ticks)
system.tol2bus.respLayer25.utilization            0.5                       # Layer utilization (%)
system.tol2bus.respLayer26.occupancy          2034786                       # Layer occupancy (ticks)
system.tol2bus.respLayer26.utilization            0.2                       # Layer utilization (%)
system.tol2bus.respLayer27.occupancy          1788399                       # Layer occupancy (ticks)
system.tol2bus.respLayer27.utilization            0.1                       # Layer utilization (%)
system.tol2bus.respLayer28.occupancy          5117804                       # Layer occupancy (ticks)
system.tol2bus.respLayer28.utilization            0.4                       # Layer utilization (%)
system.tol2bus.respLayer29.occupancy          7357583                       # Layer occupancy (ticks)
system.tol2bus.respLayer29.utilization            0.6                       # Layer utilization (%)
system.tol2bus.respLayer30.occupancy          4161495                       # Layer occupancy (ticks)
system.tol2bus.respLayer30.utilization            0.3                       # Layer utilization (%)
system.tol2bus.respLayer31.occupancy          7122552                       # Layer occupancy (ticks)
system.tol2bus.respLayer31.utilization            0.5                       # Layer utilization (%)

---------- End Simulation Statistics   ----------
