
---------- Begin Simulation Statistics ----------
sim_seconds                                  0.053398                       # Number of seconds simulated
sim_ticks                                 53398381518                       # Number of ticks simulated
final_tick                                53398381518                       # Number of ticks from beginning of simulation (restored from checkpoints and never reset)
sim_freq                                 1000000000000                       # Frequency of simulated ticks
host_inst_rate                                 282072                       # Simulator instruction rate (inst/s)
host_op_rate                                   282072                       # Simulator op (including micro ops) rate (op/s)
host_tick_rate                               32294049                       # Simulator tick rate (ticks/s)
host_mem_usage                                 693520                       # Number of bytes of host memory used
host_seconds                                  1653.51                       # Real time elapsed on the host
sim_insts                                   466408091                       # Number of instructions simulated
sim_ops                                     466408091                       # Number of ops (including micro ops) simulated
system.voltage_domain.voltage                       1                       # Voltage in Volts
system.clk_domain.clock                          1000                       # Clock period in ticks
system.mem_ctrls.bytes_read::cpu00.inst        138752                       # Number of bytes read from this memory
system.mem_ctrls.bytes_read::cpu00.data       5756416                       # Number of bytes read from this memory
system.mem_ctrls.bytes_read::cpu01.inst         12672                       # Number of bytes read from this memory
system.mem_ctrls.bytes_read::cpu01.data       1093888                       # Number of bytes read from this memory
system.mem_ctrls.bytes_read::cpu02.inst          1024                       # Number of bytes read from this memory
system.mem_ctrls.bytes_read::cpu02.data       1056832                       # Number of bytes read from this memory
system.mem_ctrls.bytes_read::cpu03.inst           832                       # Number of bytes read from this memory
system.mem_ctrls.bytes_read::cpu03.data       1137984                       # Number of bytes read from this memory
system.mem_ctrls.bytes_read::cpu04.inst            64                       # Number of bytes read from this memory
system.mem_ctrls.bytes_read::cpu04.data       1102592                       # Number of bytes read from this memory
system.mem_ctrls.bytes_read::cpu05.inst           448                       # Number of bytes read from this memory
system.mem_ctrls.bytes_read::cpu05.data       1114944                       # Number of bytes read from this memory
system.mem_ctrls.bytes_read::cpu06.inst           640                       # Number of bytes read from this memory
system.mem_ctrls.bytes_read::cpu06.data       1083584                       # Number of bytes read from this memory
system.mem_ctrls.bytes_read::cpu07.inst           384                       # Number of bytes read from this memory
system.mem_ctrls.bytes_read::cpu07.data       1172288                       # Number of bytes read from this memory
system.mem_ctrls.bytes_read::cpu08.inst           192                       # Number of bytes read from this memory
system.mem_ctrls.bytes_read::cpu08.data       1146368                       # Number of bytes read from this memory
system.mem_ctrls.bytes_read::cpu09.inst           448                       # Number of bytes read from this memory
system.mem_ctrls.bytes_read::cpu09.data       1146112                       # Number of bytes read from this memory
system.mem_ctrls.bytes_read::cpu10.inst           192                       # Number of bytes read from this memory
system.mem_ctrls.bytes_read::cpu10.data       1100416                       # Number of bytes read from this memory
system.mem_ctrls.bytes_read::cpu11.inst           640                       # Number of bytes read from this memory
system.mem_ctrls.bytes_read::cpu11.data       1184384                       # Number of bytes read from this memory
system.mem_ctrls.bytes_read::cpu12.inst           192                       # Number of bytes read from this memory
system.mem_ctrls.bytes_read::cpu12.data       1165056                       # Number of bytes read from this memory
system.mem_ctrls.bytes_read::cpu13.inst           192                       # Number of bytes read from this memory
system.mem_ctrls.bytes_read::cpu13.data       1163520                       # Number of bytes read from this memory
system.mem_ctrls.bytes_read::cpu14.inst           192                       # Number of bytes read from this memory
system.mem_ctrls.bytes_read::cpu14.data       1136512                       # Number of bytes read from this memory
system.mem_ctrls.bytes_read::cpu15.inst            64                       # Number of bytes read from this memory
system.mem_ctrls.bytes_read::cpu15.data       1223680                       # Number of bytes read from this memory
system.mem_ctrls.bytes_read::total           22941504                       # Number of bytes read from this memory
system.mem_ctrls.bytes_inst_read::cpu00.inst       138752                       # Number of instructions bytes read from this memory
system.mem_ctrls.bytes_inst_read::cpu01.inst        12672                       # Number of instructions bytes read from this memory
system.mem_ctrls.bytes_inst_read::cpu02.inst         1024                       # Number of instructions bytes read from this memory
system.mem_ctrls.bytes_inst_read::cpu03.inst          832                       # Number of instructions bytes read from this memory
system.mem_ctrls.bytes_inst_read::cpu04.inst           64                       # Number of instructions bytes read from this memory
system.mem_ctrls.bytes_inst_read::cpu05.inst          448                       # Number of instructions bytes read from this memory
system.mem_ctrls.bytes_inst_read::cpu06.inst          640                       # Number of instructions bytes read from this memory
system.mem_ctrls.bytes_inst_read::cpu07.inst          384                       # Number of instructions bytes read from this memory
system.mem_ctrls.bytes_inst_read::cpu08.inst          192                       # Number of instructions bytes read from this memory
system.mem_ctrls.bytes_inst_read::cpu09.inst          448                       # Number of instructions bytes read from this memory
system.mem_ctrls.bytes_inst_read::cpu10.inst          192                       # Number of instructions bytes read from this memory
system.mem_ctrls.bytes_inst_read::cpu11.inst          640                       # Number of instructions bytes read from this memory
system.mem_ctrls.bytes_inst_read::cpu12.inst          192                       # Number of instructions bytes read from this memory
system.mem_ctrls.bytes_inst_read::cpu13.inst          192                       # Number of instructions bytes read from this memory
system.mem_ctrls.bytes_inst_read::cpu14.inst          192                       # Number of instructions bytes read from this memory
system.mem_ctrls.bytes_inst_read::cpu15.inst           64                       # Number of instructions bytes read from this memory
system.mem_ctrls.bytes_inst_read::total        156928                       # Number of instructions bytes read from this memory
system.mem_ctrls.bytes_written::writebacks     17098944                       # Number of bytes written to this memory
system.mem_ctrls.bytes_written::total        17098944                       # Number of bytes written to this memory
system.mem_ctrls.num_reads::cpu00.inst           2168                       # Number of read requests responded to by this memory
system.mem_ctrls.num_reads::cpu00.data          89944                       # Number of read requests responded to by this memory
system.mem_ctrls.num_reads::cpu01.inst            198                       # Number of read requests responded to by this memory
system.mem_ctrls.num_reads::cpu01.data          17092                       # Number of read requests responded to by this memory
system.mem_ctrls.num_reads::cpu02.inst             16                       # Number of read requests responded to by this memory
system.mem_ctrls.num_reads::cpu02.data          16513                       # Number of read requests responded to by this memory
system.mem_ctrls.num_reads::cpu03.inst             13                       # Number of read requests responded to by this memory
system.mem_ctrls.num_reads::cpu03.data          17781                       # Number of read requests responded to by this memory
system.mem_ctrls.num_reads::cpu04.inst              1                       # Number of read requests responded to by this memory
system.mem_ctrls.num_reads::cpu04.data          17228                       # Number of read requests responded to by this memory
system.mem_ctrls.num_reads::cpu05.inst              7                       # Number of read requests responded to by this memory
system.mem_ctrls.num_reads::cpu05.data          17421                       # Number of read requests responded to by this memory
system.mem_ctrls.num_reads::cpu06.inst             10                       # Number of read requests responded to by this memory
system.mem_ctrls.num_reads::cpu06.data          16931                       # Number of read requests responded to by this memory
system.mem_ctrls.num_reads::cpu07.inst              6                       # Number of read requests responded to by this memory
system.mem_ctrls.num_reads::cpu07.data          18317                       # Number of read requests responded to by this memory
system.mem_ctrls.num_reads::cpu08.inst              3                       # Number of read requests responded to by this memory
system.mem_ctrls.num_reads::cpu08.data          17912                       # Number of read requests responded to by this memory
system.mem_ctrls.num_reads::cpu09.inst              7                       # Number of read requests responded to by this memory
system.mem_ctrls.num_reads::cpu09.data          17908                       # Number of read requests responded to by this memory
system.mem_ctrls.num_reads::cpu10.inst              3                       # Number of read requests responded to by this memory
system.mem_ctrls.num_reads::cpu10.data          17194                       # Number of read requests responded to by this memory
system.mem_ctrls.num_reads::cpu11.inst             10                       # Number of read requests responded to by this memory
system.mem_ctrls.num_reads::cpu11.data          18506                       # Number of read requests responded to by this memory
system.mem_ctrls.num_reads::cpu12.inst              3                       # Number of read requests responded to by this memory
system.mem_ctrls.num_reads::cpu12.data          18204                       # Number of read requests responded to by this memory
system.mem_ctrls.num_reads::cpu13.inst              3                       # Number of read requests responded to by this memory
system.mem_ctrls.num_reads::cpu13.data          18180                       # Number of read requests responded to by this memory
system.mem_ctrls.num_reads::cpu14.inst              3                       # Number of read requests responded to by this memory
system.mem_ctrls.num_reads::cpu14.data          17758                       # Number of read requests responded to by this memory
system.mem_ctrls.num_reads::cpu15.inst              1                       # Number of read requests responded to by this memory
system.mem_ctrls.num_reads::cpu15.data          19120                       # Number of read requests responded to by this memory
system.mem_ctrls.num_reads::total              358461                       # Number of read requests responded to by this memory
system.mem_ctrls.num_writes::writebacks        267171                       # Number of write requests responded to by this memory
system.mem_ctrls.num_writes::total             267171                       # Number of write requests responded to by this memory
system.mem_ctrls.bw_read::cpu00.inst          2598431                       # Total read bandwidth from this memory (bytes/s)
system.mem_ctrls.bw_read::cpu00.data        107801320                       # Total read bandwidth from this memory (bytes/s)
system.mem_ctrls.bw_read::cpu01.inst           237311                       # Total read bandwidth from this memory (bytes/s)
system.mem_ctrls.bw_read::cpu01.data         20485415                       # Total read bandwidth from this memory (bytes/s)
system.mem_ctrls.bw_read::cpu02.inst            19177                       # Total read bandwidth from this memory (bytes/s)
system.mem_ctrls.bw_read::cpu02.data         19791461                       # Total read bandwidth from this memory (bytes/s)
system.mem_ctrls.bw_read::cpu03.inst            15581                       # Total read bandwidth from this memory (bytes/s)
system.mem_ctrls.bw_read::cpu03.data         21311208                       # Total read bandwidth from this memory (bytes/s)
system.mem_ctrls.bw_read::cpu04.inst             1199                       # Total read bandwidth from this memory (bytes/s)
system.mem_ctrls.bw_read::cpu04.data         20648416                       # Total read bandwidth from this memory (bytes/s)
system.mem_ctrls.bw_read::cpu05.inst             8390                       # Total read bandwidth from this memory (bytes/s)
system.mem_ctrls.bw_read::cpu05.data         20879734                       # Total read bandwidth from this memory (bytes/s)
system.mem_ctrls.bw_read::cpu06.inst            11985                       # Total read bandwidth from this memory (bytes/s)
system.mem_ctrls.bw_read::cpu06.data         20292450                       # Total read bandwidth from this memory (bytes/s)
system.mem_ctrls.bw_read::cpu07.inst             7191                       # Total read bandwidth from this memory (bytes/s)
system.mem_ctrls.bw_read::cpu07.data         21953624                       # Total read bandwidth from this memory (bytes/s)
system.mem_ctrls.bw_read::cpu08.inst             3596                       # Total read bandwidth from this memory (bytes/s)
system.mem_ctrls.bw_read::cpu08.data         21468216                       # Total read bandwidth from this memory (bytes/s)
system.mem_ctrls.bw_read::cpu09.inst             8390                       # Total read bandwidth from this memory (bytes/s)
system.mem_ctrls.bw_read::cpu09.data         21463422                       # Total read bandwidth from this memory (bytes/s)
system.mem_ctrls.bw_read::cpu10.inst             3596                       # Total read bandwidth from this memory (bytes/s)
system.mem_ctrls.bw_read::cpu10.data         20607666                       # Total read bandwidth from this memory (bytes/s)
system.mem_ctrls.bw_read::cpu11.inst            11985                       # Total read bandwidth from this memory (bytes/s)
system.mem_ctrls.bw_read::cpu11.data         22180148                       # Total read bandwidth from this memory (bytes/s)
system.mem_ctrls.bw_read::cpu12.inst             3596                       # Total read bandwidth from this memory (bytes/s)
system.mem_ctrls.bw_read::cpu12.data         21818189                       # Total read bandwidth from this memory (bytes/s)
system.mem_ctrls.bw_read::cpu13.inst             3596                       # Total read bandwidth from this memory (bytes/s)
system.mem_ctrls.bw_read::cpu13.data         21789424                       # Total read bandwidth from this memory (bytes/s)
system.mem_ctrls.bw_read::cpu14.inst             3596                       # Total read bandwidth from this memory (bytes/s)
system.mem_ctrls.bw_read::cpu14.data         21283641                       # Total read bandwidth from this memory (bytes/s)
system.mem_ctrls.bw_read::cpu15.inst             1199                       # Total read bandwidth from this memory (bytes/s)
system.mem_ctrls.bw_read::cpu15.data         22916050                       # Total read bandwidth from this memory (bytes/s)
system.mem_ctrls.bw_read::total             429629201                       # Total read bandwidth from this memory (bytes/s)
system.mem_ctrls.bw_inst_read::cpu00.inst      2598431                       # Instruction read bandwidth from this memory (bytes/s)
system.mem_ctrls.bw_inst_read::cpu01.inst       237311                       # Instruction read bandwidth from this memory (bytes/s)
system.mem_ctrls.bw_inst_read::cpu02.inst        19177                       # Instruction read bandwidth from this memory (bytes/s)
system.mem_ctrls.bw_inst_read::cpu03.inst        15581                       # Instruction read bandwidth from this memory (bytes/s)
system.mem_ctrls.bw_inst_read::cpu04.inst         1199                       # Instruction read bandwidth from this memory (bytes/s)
system.mem_ctrls.bw_inst_read::cpu05.inst         8390                       # Instruction read bandwidth from this memory (bytes/s)
system.mem_ctrls.bw_inst_read::cpu06.inst        11985                       # Instruction read bandwidth from this memory (bytes/s)
system.mem_ctrls.bw_inst_read::cpu07.inst         7191                       # Instruction read bandwidth from this memory (bytes/s)
system.mem_ctrls.bw_inst_read::cpu08.inst         3596                       # Instruction read bandwidth from this memory (bytes/s)
system.mem_ctrls.bw_inst_read::cpu09.inst         8390                       # Instruction read bandwidth from this memory (bytes/s)
system.mem_ctrls.bw_inst_read::cpu10.inst         3596                       # Instruction read bandwidth from this memory (bytes/s)
system.mem_ctrls.bw_inst_read::cpu11.inst        11985                       # Instruction read bandwidth from this memory (bytes/s)
system.mem_ctrls.bw_inst_read::cpu12.inst         3596                       # Instruction read bandwidth from this memory (bytes/s)
system.mem_ctrls.bw_inst_read::cpu13.inst         3596                       # Instruction read bandwidth from this memory (bytes/s)
system.mem_ctrls.bw_inst_read::cpu14.inst         3596                       # Instruction read bandwidth from this memory (bytes/s)
system.mem_ctrls.bw_inst_read::cpu15.inst         1199                       # Instruction read bandwidth from this memory (bytes/s)
system.mem_ctrls.bw_inst_read::total          2938816                       # Instruction read bandwidth from this memory (bytes/s)
system.mem_ctrls.bw_write::writebacks       320214649                       # Write bandwidth from this memory (bytes/s)
system.mem_ctrls.bw_write::total            320214649                       # Write bandwidth from this memory (bytes/s)
system.mem_ctrls.bw_total::writebacks       320214649                       # Total bandwidth to/from this memory (bytes/s)
system.mem_ctrls.bw_total::cpu00.inst         2598431                       # Total bandwidth to/from this memory (bytes/s)
system.mem_ctrls.bw_total::cpu00.data       107801320                       # Total bandwidth to/from this memory (bytes/s)
system.mem_ctrls.bw_total::cpu01.inst          237311                       # Total bandwidth to/from this memory (bytes/s)
system.mem_ctrls.bw_total::cpu01.data        20485415                       # Total bandwidth to/from this memory (bytes/s)
system.mem_ctrls.bw_total::cpu02.inst           19177                       # Total bandwidth to/from this memory (bytes/s)
system.mem_ctrls.bw_total::cpu02.data        19791461                       # Total bandwidth to/from this memory (bytes/s)
system.mem_ctrls.bw_total::cpu03.inst           15581                       # Total bandwidth to/from this memory (bytes/s)
system.mem_ctrls.bw_total::cpu03.data        21311208                       # Total bandwidth to/from this memory (bytes/s)
system.mem_ctrls.bw_total::cpu04.inst            1199                       # Total bandwidth to/from this memory (bytes/s)
system.mem_ctrls.bw_total::cpu04.data        20648416                       # Total bandwidth to/from this memory (bytes/s)
system.mem_ctrls.bw_total::cpu05.inst            8390                       # Total bandwidth to/from this memory (bytes/s)
system.mem_ctrls.bw_total::cpu05.data        20879734                       # Total bandwidth to/from this memory (bytes/s)
system.mem_ctrls.bw_total::cpu06.inst           11985                       # Total bandwidth to/from this memory (bytes/s)
system.mem_ctrls.bw_total::cpu06.data        20292450                       # Total bandwidth to/from this memory (bytes/s)
system.mem_ctrls.bw_total::cpu07.inst            7191                       # Total bandwidth to/from this memory (bytes/s)
system.mem_ctrls.bw_total::cpu07.data        21953624                       # Total bandwidth to/from this memory (bytes/s)
system.mem_ctrls.bw_total::cpu08.inst            3596                       # Total bandwidth to/from this memory (bytes/s)
system.mem_ctrls.bw_total::cpu08.data        21468216                       # Total bandwidth to/from this memory (bytes/s)
system.mem_ctrls.bw_total::cpu09.inst            8390                       # Total bandwidth to/from this memory (bytes/s)
system.mem_ctrls.bw_total::cpu09.data        21463422                       # Total bandwidth to/from this memory (bytes/s)
system.mem_ctrls.bw_total::cpu10.inst            3596                       # Total bandwidth to/from this memory (bytes/s)
system.mem_ctrls.bw_total::cpu10.data        20607666                       # Total bandwidth to/from this memory (bytes/s)
system.mem_ctrls.bw_total::cpu11.inst           11985                       # Total bandwidth to/from this memory (bytes/s)
system.mem_ctrls.bw_total::cpu11.data        22180148                       # Total bandwidth to/from this memory (bytes/s)
system.mem_ctrls.bw_total::cpu12.inst            3596                       # Total bandwidth to/from this memory (bytes/s)
system.mem_ctrls.bw_total::cpu12.data        21818189                       # Total bandwidth to/from this memory (bytes/s)
system.mem_ctrls.bw_total::cpu13.inst            3596                       # Total bandwidth to/from this memory (bytes/s)
system.mem_ctrls.bw_total::cpu13.data        21789424                       # Total bandwidth to/from this memory (bytes/s)
system.mem_ctrls.bw_total::cpu14.inst            3596                       # Total bandwidth to/from this memory (bytes/s)
system.mem_ctrls.bw_total::cpu14.data        21283641                       # Total bandwidth to/from this memory (bytes/s)
system.mem_ctrls.bw_total::cpu15.inst            1199                       # Total bandwidth to/from this memory (bytes/s)
system.mem_ctrls.bw_total::cpu15.data        22916050                       # Total bandwidth to/from this memory (bytes/s)
system.mem_ctrls.bw_total::total            749843850                       # Total bandwidth to/from this memory (bytes/s)
system.cpu00.branchPred.lookups              16413199                       # Number of BP lookups
system.cpu00.branchPred.condPredicted         9954042                       # Number of conditional branches predicted
system.cpu00.branchPred.condIncorrect           22889                       # Number of conditional branches incorrect
system.cpu00.branchPred.BTBLookups           11482888                       # Number of BTB lookups
system.cpu00.branchPred.BTBHits               8321028                       # Number of BTB hits
system.cpu00.branchPred.BTBCorrect                  0                       # Number of correct BTB predictions (this stat may not work properly.
system.cpu00.branchPred.BTBHitPct           72.464593                       # BTB Hit Percentage
system.cpu00.branchPred.usedRAS               3224327                       # Number of times the RAS was used to get a target.
system.cpu00.branchPred.RASInCorrect               86                       # Number of incorrect RAS predictions.
system.cpu00.branchPred.indirectLookups        265178                       # Number of indirect predictor lookups.
system.cpu00.branchPred.indirectHits           264289                       # Number of indirect target hits.
system.cpu00.branchPred.indirectMisses            889                       # Number of indirect misses.
system.cpu00.branchPredindirectMispredicted          260                       # Number of mispredicted indirect branches.
system.cpu_voltage_domain.voltage                   1                       # Voltage in Volts
system.cpu_clk_domain.clock                      1161                       # Clock period in ticks
system.cpu00.dtb.fetch_hits                         0                       # ITB hits
system.cpu00.dtb.fetch_misses                       0                       # ITB misses
system.cpu00.dtb.fetch_acv                          0                       # ITB acv
system.cpu00.dtb.fetch_accesses                     0                       # ITB accesses
system.cpu00.dtb.read_hits                   21246146                       # DTB read hits
system.cpu00.dtb.read_misses                     5618                       # DTB read misses
system.cpu00.dtb.read_acv                           1                       # DTB read access violations
system.cpu00.dtb.read_accesses               21251764                       # DTB read accesses
system.cpu00.dtb.write_hits                   7525752                       # DTB write hits
system.cpu00.dtb.write_misses                    2266                       # DTB write misses
system.cpu00.dtb.write_acv                          0                       # DTB write access violations
system.cpu00.dtb.write_accesses               7528018                       # DTB write accesses
system.cpu00.dtb.data_hits                   28771898                       # DTB hits
system.cpu00.dtb.data_misses                     7884                       # DTB misses
system.cpu00.dtb.data_acv                           1                       # DTB access violations
system.cpu00.dtb.data_accesses               28779782                       # DTB accesses
system.cpu00.itb.fetch_hits                  15827782                       # ITB hits
system.cpu00.itb.fetch_misses                     172                       # ITB misses
system.cpu00.itb.fetch_acv                          0                       # ITB acv
system.cpu00.itb.fetch_accesses              15827954                       # ITB accesses
system.cpu00.itb.read_hits                          0                       # DTB read hits
system.cpu00.itb.read_misses                        0                       # DTB read misses
system.cpu00.itb.read_acv                           0                       # DTB read access violations
system.cpu00.itb.read_accesses                      0                       # DTB read accesses
system.cpu00.itb.write_hits                         0                       # DTB write hits
system.cpu00.itb.write_misses                       0                       # DTB write misses
system.cpu00.itb.write_acv                          0                       # DTB write access violations
system.cpu00.itb.write_accesses                     0                       # DTB write accesses
system.cpu00.itb.data_hits                          0                       # DTB hits
system.cpu00.itb.data_misses                        0                       # DTB misses
system.cpu00.itb.data_acv                           0                       # DTB access violations
system.cpu00.itb.data_accesses                      0                       # DTB accesses
system.cpu00.workload.num_syscalls               5349                       # Number of system calls
system.cpu00.numCycles                       45021197                       # number of cpu cycles simulated
system.cpu00.numWorkItemsStarted                    0                       # number of work items this cpu started
system.cpu00.numWorkItemsCompleted                  0                       # number of work items this cpu completed
system.cpu00.fetch.icacheStallCycles           107652                       # Number of cycles fetch is stalled on an Icache miss
system.cpu00.fetch.Insts                    122361828                       # Number of instructions fetch has processed
system.cpu00.fetch.Branches                  16413199                       # Number of branches that fetch encountered
system.cpu00.fetch.predictedBranches         11809644                       # Number of branches that fetch has predicted taken
system.cpu00.fetch.Cycles                    44644087                       # Number of cycles fetch has run and was not squashing or blocked
system.cpu00.fetch.SquashCycles                 52982                       # Number of cycles fetch has spent squashing
system.cpu00.fetch.MiscStallCycles                190                       # Number of cycles fetch has spent waiting on interrupts, or bad addresses, or out of MSHRs
system.cpu00.fetch.PendingTrapStallCycles         6591                       # Number of stall cycles due to pending traps
system.cpu00.fetch.IcacheWaitRetryStallCycles           43                       # Number of stall cycles due to full MSHR
system.cpu00.fetch.CacheLines                15827782                       # Number of cache lines fetched
system.cpu00.fetch.IcacheSquashes                2562                       # Number of outstanding Icache misses that were squashed
system.cpu00.fetch.rateDist::samples         44785054                       # Number of instructions fetched each cycle (Total)
system.cpu00.fetch.rateDist::mean            2.732202                       # Number of instructions fetched each cycle (Total)
system.cpu00.fetch.rateDist::stdev           3.094246                       # Number of instructions fetched each cycle (Total)
system.cpu00.fetch.rateDist::underflows             0      0.00%      0.00% # Number of instructions fetched each cycle (Total)
system.cpu00.fetch.rateDist::0               21618428     48.27%     48.27% # Number of instructions fetched each cycle (Total)
system.cpu00.fetch.rateDist::1                 883776      1.97%     50.24% # Number of instructions fetched each cycle (Total)
system.cpu00.fetch.rateDist::2                2363137      5.28%     55.52% # Number of instructions fetched each cycle (Total)
system.cpu00.fetch.rateDist::3                2725489      6.09%     61.61% # Number of instructions fetched each cycle (Total)
system.cpu00.fetch.rateDist::4                3577716      7.99%     69.60% # Number of instructions fetched each cycle (Total)
system.cpu00.fetch.rateDist::5                1905376      4.25%     73.85% # Number of instructions fetched each cycle (Total)
system.cpu00.fetch.rateDist::6                4060882      9.07%     82.92% # Number of instructions fetched each cycle (Total)
system.cpu00.fetch.rateDist::7                 829725      1.85%     84.77% # Number of instructions fetched each cycle (Total)
system.cpu00.fetch.rateDist::8                6820525     15.23%    100.00% # Number of instructions fetched each cycle (Total)
system.cpu00.fetch.rateDist::overflows              0      0.00%    100.00% # Number of instructions fetched each cycle (Total)
system.cpu00.fetch.rateDist::min_value              0                       # Number of instructions fetched each cycle (Total)
system.cpu00.fetch.rateDist::max_value              8                       # Number of instructions fetched each cycle (Total)
system.cpu00.fetch.rateDist::total           44785054                       # Number of instructions fetched each cycle (Total)
system.cpu00.fetch.branchRate                0.364566                       # Number of branch fetches per cycle
system.cpu00.fetch.rate                      2.717871                       # Number of inst fetches per cycle
system.cpu00.decode.IdleCycles                1158663                       # Number of cycles decode is idle
system.cpu00.decode.BlockedCycles            24449614                       # Number of cycles decode is blocked
system.cpu00.decode.RunCycles                17272030                       # Number of cycles decode is running
system.cpu00.decode.UnblockCycles             1879961                       # Number of cycles decode is unblocking
system.cpu00.decode.SquashCycles                24786                       # Number of cycles decode is squashing
system.cpu00.decode.BranchResolved            2964833                       # Number of times decode resolved a branch
system.cpu00.decode.BranchMispred                1735                       # Number of times decode detected a branch misprediction
system.cpu00.decode.DecodedInsts            122025594                       # Number of instructions handled by decode
system.cpu00.decode.SquashedInsts                7834                       # Number of squashed instructions handled by decode
system.cpu00.rename.SquashCycles                24786                       # Number of cycles rename is squashing
system.cpu00.rename.IdleCycles                2224676                       # Number of cycles rename is idle
system.cpu00.rename.BlockCycles               6014449                       # Number of cycles rename is blocking
system.cpu00.rename.serializeStallCycles     14076968                       # count of cycles rename stalled for serializing inst
system.cpu00.rename.RunCycles                18031808                       # Number of cycles rename is running
system.cpu00.rename.UnblockCycles             4412367                       # Number of cycles rename is unblocking
system.cpu00.rename.RenamedInsts            121862748                       # Number of instructions processed by rename
system.cpu00.rename.ROBFullEvents               74177                       # Number of times rename has blocked due to ROB full
system.cpu00.rename.IQFullEvents              1141707                       # Number of times rename has blocked due to IQ full
system.cpu00.rename.LQFullEvents              1950771                       # Number of times rename has blocked due to LQ full
system.cpu00.rename.SQFullEvents               224147                       # Number of times rename has blocked due to SQ full
system.cpu00.rename.RenamedOperands          94715433                       # Number of destination operands rename has renamed
system.cpu00.rename.RenameLookups           167483221                       # Number of register rename lookups that rename has made
system.cpu00.rename.int_rename_lookups      148671910                       # Number of integer rename lookups
system.cpu00.rename.fp_rename_lookups        18548909                       # Number of floating rename lookups
system.cpu00.rename.CommittedMaps            93904318                       # Number of HB maps that are committed
system.cpu00.rename.UndoneMaps                 811115                       # Number of HB maps that are undone due to squashing
system.cpu00.rename.serializingInsts           265645                       # count of serializing insts renamed
system.cpu00.rename.tempSerializingInsts         2038                       # count of temporary serializing insts renamed
system.cpu00.rename.skidInsts                11965007                       # count of insts added to the skid buffer
system.cpu00.memDep0.insertedLoads           21202449                       # Number of loads inserted to the mem dependence unit.
system.cpu00.memDep0.insertedStores           7540446                       # Number of stores inserted to the mem dependence unit.
system.cpu00.memDep0.conflictingLoads         1506320                       # Number of conflicting loads.
system.cpu00.memDep0.conflictingStores         436469                       # Number of conflicting stores.
system.cpu00.iq.iqInstsAdded                116769288                       # Number of instructions added to the IQ (excludes non-spec)
system.cpu00.iq.iqNonSpecInstsAdded              3237                       # Number of non-speculative instructions added to the IQ
system.cpu00.iq.iqInstsIssued               116729205                       # Number of instructions issued
system.cpu00.iq.iqSquashedInstsIssued           19538                       # Number of squashed instructions issued
system.cpu00.iq.iqSquashedInstsExamined        756977                       # Number of squashed instructions iterated over during squash; mainly for profiling
system.cpu00.iq.iqSquashedOperandsExamined       307449                       # Number of squashed operands that are examined and possibly removed from graph
system.cpu00.iq.iqSquashedNonSpecRemoved          459                       # Number of squashed non-spec instructions that were removed
system.cpu00.iq.issued_per_cycle::samples     44785054                       # Number of insts issued each cycle
system.cpu00.iq.issued_per_cycle::mean       2.606432                       # Number of insts issued each cycle
system.cpu00.iq.issued_per_cycle::stdev      2.667482                       # Number of insts issued each cycle
system.cpu00.iq.issued_per_cycle::underflows            0      0.00%      0.00% # Number of insts issued each cycle
system.cpu00.iq.issued_per_cycle::0          19156817     42.78%     42.78% # Number of insts issued each cycle
system.cpu00.iq.issued_per_cycle::1           1806486      4.03%     46.81% # Number of insts issued each cycle
system.cpu00.iq.issued_per_cycle::2           1994320      4.45%     51.26% # Number of insts issued each cycle
system.cpu00.iq.issued_per_cycle::3           3360058      7.50%     58.76% # Number of insts issued each cycle
system.cpu00.iq.issued_per_cycle::4           5686888     12.70%     71.46% # Number of insts issued each cycle
system.cpu00.iq.issued_per_cycle::5           4592772     10.26%     81.72% # Number of insts issued each cycle
system.cpu00.iq.issued_per_cycle::6           4226851      9.44%     91.16% # Number of insts issued each cycle
system.cpu00.iq.issued_per_cycle::7           1905509      4.25%     95.41% # Number of insts issued each cycle
system.cpu00.iq.issued_per_cycle::8           2055353      4.59%    100.00% # Number of insts issued each cycle
system.cpu00.iq.issued_per_cycle::overflows            0      0.00%    100.00% # Number of insts issued each cycle
system.cpu00.iq.issued_per_cycle::min_value            0                       # Number of insts issued each cycle
system.cpu00.iq.issued_per_cycle::max_value            8                       # Number of insts issued each cycle
system.cpu00.iq.issued_per_cycle::total      44785054                       # Number of insts issued each cycle
system.cpu00.iq.fu_full::No_OpClass                 0      0.00%      0.00% # attempts to use FU when none available
system.cpu00.iq.fu_full::IntAlu               1056587     33.14%     33.14% # attempts to use FU when none available
system.cpu00.iq.fu_full::IntMult               524326     16.45%     49.59% # attempts to use FU when none available
system.cpu00.iq.fu_full::IntDiv                     0      0.00%     49.59% # attempts to use FU when none available
system.cpu00.iq.fu_full::FloatAdd               32972      1.03%     50.63% # attempts to use FU when none available
system.cpu00.iq.fu_full::FloatCmp                   0      0.00%     50.63% # attempts to use FU when none available
system.cpu00.iq.fu_full::FloatCvt                   0      0.00%     50.63% # attempts to use FU when none available
system.cpu00.iq.fu_full::FloatMult             656748     20.60%     71.23% # attempts to use FU when none available
system.cpu00.iq.fu_full::FloatDiv                6252      0.20%     71.43% # attempts to use FU when none available
system.cpu00.iq.fu_full::FloatSqrt                  0      0.00%     71.43% # attempts to use FU when none available
system.cpu00.iq.fu_full::SimdAdd                    0      0.00%     71.43% # attempts to use FU when none available
system.cpu00.iq.fu_full::SimdAddAcc                 0      0.00%     71.43% # attempts to use FU when none available
system.cpu00.iq.fu_full::SimdAlu                    0      0.00%     71.43% # attempts to use FU when none available
system.cpu00.iq.fu_full::SimdCmp                    0      0.00%     71.43% # attempts to use FU when none available
system.cpu00.iq.fu_full::SimdCvt                    0      0.00%     71.43% # attempts to use FU when none available
system.cpu00.iq.fu_full::SimdMisc                   0      0.00%     71.43% # attempts to use FU when none available
system.cpu00.iq.fu_full::SimdMult                   0      0.00%     71.43% # attempts to use FU when none available
system.cpu00.iq.fu_full::SimdMultAcc                0      0.00%     71.43% # attempts to use FU when none available
system.cpu00.iq.fu_full::SimdShift                  0      0.00%     71.43% # attempts to use FU when none available
system.cpu00.iq.fu_full::SimdShiftAcc               0      0.00%     71.43% # attempts to use FU when none available
system.cpu00.iq.fu_full::SimdSqrt                   0      0.00%     71.43% # attempts to use FU when none available
system.cpu00.iq.fu_full::SimdFloatAdd               0      0.00%     71.43% # attempts to use FU when none available
system.cpu00.iq.fu_full::SimdFloatAlu               0      0.00%     71.43% # attempts to use FU when none available
system.cpu00.iq.fu_full::SimdFloatCmp               0      0.00%     71.43% # attempts to use FU when none available
system.cpu00.iq.fu_full::SimdFloatCvt               0      0.00%     71.43% # attempts to use FU when none available
system.cpu00.iq.fu_full::SimdFloatDiv               0      0.00%     71.43% # attempts to use FU when none available
system.cpu00.iq.fu_full::SimdFloatMisc              0      0.00%     71.43% # attempts to use FU when none available
system.cpu00.iq.fu_full::SimdFloatMult              0      0.00%     71.43% # attempts to use FU when none available
system.cpu00.iq.fu_full::SimdFloatMultAcc            0      0.00%     71.43% # attempts to use FU when none available
system.cpu00.iq.fu_full::SimdFloatSqrt              0      0.00%     71.43% # attempts to use FU when none available
system.cpu00.iq.fu_full::MemRead               900519     28.25%     99.67% # attempts to use FU when none available
system.cpu00.iq.fu_full::MemWrite               10391      0.33%    100.00% # attempts to use FU when none available
system.cpu00.iq.fu_full::IprAccess                  0      0.00%    100.00% # attempts to use FU when none available
system.cpu00.iq.fu_full::InstPrefetch               0      0.00%    100.00% # attempts to use FU when none available
system.cpu00.iq.FU_type_0::No_OpClass               0      0.00%      0.00% # Type of FU issued
system.cpu00.iq.FU_type_0::IntAlu            77297353     66.22%     66.22% # Type of FU issued
system.cpu00.iq.FU_type_0::IntMult            2395119      2.05%     68.27% # Type of FU issued
system.cpu00.iq.FU_type_0::IntDiv                   0      0.00%     68.27% # Type of FU issued
system.cpu00.iq.FU_type_0::FloatAdd           4750319      4.07%     72.34% # Type of FU issued
system.cpu00.iq.FU_type_0::FloatCmp                31      0.00%     72.34% # Type of FU issued
system.cpu00.iq.FU_type_0::FloatCvt                 0      0.00%     72.34% # Type of FU issued
system.cpu00.iq.FU_type_0::FloatMult          3460715      2.96%     75.31% # Type of FU issued
system.cpu00.iq.FU_type_0::FloatDiv              8390      0.01%     75.31% # Type of FU issued
system.cpu00.iq.FU_type_0::FloatSqrt                0      0.00%     75.31% # Type of FU issued
system.cpu00.iq.FU_type_0::SimdAdd                  0      0.00%     75.31% # Type of FU issued
system.cpu00.iq.FU_type_0::SimdAddAcc               0      0.00%     75.31% # Type of FU issued
system.cpu00.iq.FU_type_0::SimdAlu                  0      0.00%     75.31% # Type of FU issued
system.cpu00.iq.FU_type_0::SimdCmp                  0      0.00%     75.31% # Type of FU issued
system.cpu00.iq.FU_type_0::SimdCvt                  0      0.00%     75.31% # Type of FU issued
system.cpu00.iq.FU_type_0::SimdMisc                 0      0.00%     75.31% # Type of FU issued
system.cpu00.iq.FU_type_0::SimdMult                 0      0.00%     75.31% # Type of FU issued
system.cpu00.iq.FU_type_0::SimdMultAcc              0      0.00%     75.31% # Type of FU issued
system.cpu00.iq.FU_type_0::SimdShift                0      0.00%     75.31% # Type of FU issued
system.cpu00.iq.FU_type_0::SimdShiftAcc             0      0.00%     75.31% # Type of FU issued
system.cpu00.iq.FU_type_0::SimdSqrt                 0      0.00%     75.31% # Type of FU issued
system.cpu00.iq.FU_type_0::SimdFloatAdd             0      0.00%     75.31% # Type of FU issued
system.cpu00.iq.FU_type_0::SimdFloatAlu             0      0.00%     75.31% # Type of FU issued
system.cpu00.iq.FU_type_0::SimdFloatCmp             0      0.00%     75.31% # Type of FU issued
system.cpu00.iq.FU_type_0::SimdFloatCvt             0      0.00%     75.31% # Type of FU issued
system.cpu00.iq.FU_type_0::SimdFloatDiv             0      0.00%     75.31% # Type of FU issued
system.cpu00.iq.FU_type_0::SimdFloatMisc            0      0.00%     75.31% # Type of FU issued
system.cpu00.iq.FU_type_0::SimdFloatMult            0      0.00%     75.31% # Type of FU issued
system.cpu00.iq.FU_type_0::SimdFloatMultAcc            0      0.00%     75.31% # Type of FU issued
system.cpu00.iq.FU_type_0::SimdFloatSqrt            0      0.00%     75.31% # Type of FU issued
system.cpu00.iq.FU_type_0::MemRead           21287607     18.24%     93.55% # Type of FU issued
system.cpu00.iq.FU_type_0::MemWrite           7529671      6.45%    100.00% # Type of FU issued
system.cpu00.iq.FU_type_0::IprAccess                0      0.00%    100.00% # Type of FU issued
system.cpu00.iq.FU_type_0::InstPrefetch             0      0.00%    100.00% # Type of FU issued
system.cpu00.iq.FU_type_0::total            116729205                       # Type of FU issued
system.cpu00.iq.rate                         2.592761                       # Inst issue rate
system.cpu00.iq.fu_busy_cnt                   3187795                       # FU busy when requested
system.cpu00.iq.fu_busy_rate                 0.027309                       # FU busy rate (busy events/executed inst)
system.cpu00.iq.int_inst_queue_reads        241096529                       # Number of integer instruction queue reads
system.cpu00.iq.int_inst_queue_writes        97933286                       # Number of integer instruction queue writes
system.cpu00.iq.int_inst_queue_wakeup_accesses     97140994                       # Number of integer instruction queue wakeup accesses
system.cpu00.iq.fp_inst_queue_reads          40354268                       # Number of floating instruction queue reads
system.cpu00.iq.fp_inst_queue_writes         19597128                       # Number of floating instruction queue writes
system.cpu00.iq.fp_inst_queue_wakeup_accesses     19364079                       # Number of floating instruction queue wakeup accesses
system.cpu00.iq.int_alu_accesses             99084442                       # Number of integer alu accesses
system.cpu00.iq.fp_alu_accesses              20832558                       # Number of floating point alu accesses
system.cpu00.iew.lsq.thread0.forwLoads        1084656                       # Number of loads that had data forwarded from stores
system.cpu00.iew.lsq.thread0.invAddrLoads            0                       # Number of loads ignored due to an invalid address
system.cpu00.iew.lsq.thread0.squashedLoads       145023                       # Number of loads squashed
system.cpu00.iew.lsq.thread0.ignoredResponses           90                       # Number of memory responses ignored because the instruction is squashed
system.cpu00.iew.lsq.thread0.memOrderViolation          924                       # Number of memory ordering violations
system.cpu00.iew.lsq.thread0.squashedStores        32526                       # Number of stores squashed
system.cpu00.iew.lsq.thread0.invAddrSwpfs            0                       # Number of software prefetches ignored due to an invalid address
system.cpu00.iew.lsq.thread0.blockedLoads            0                       # Number of blocked loads due to partial load-store forwarding
system.cpu00.iew.lsq.thread0.rescheduledLoads          225                       # Number of loads that were rescheduled
system.cpu00.iew.lsq.thread0.cacheBlocked       121765                       # Number of times an access to memory failed due to the cache being blocked
system.cpu00.iew.iewIdleCycles                      0                       # Number of cycles IEW is idle
system.cpu00.iew.iewSquashCycles                24786                       # Number of cycles IEW is squashing
system.cpu00.iew.iewBlockCycles                300589                       # Number of cycles IEW is blocking
system.cpu00.iew.iewUnblockCycles              342848                       # Number of cycles IEW is unblocking
system.cpu00.iew.iewDispatchedInsts         121593332                       # Number of instructions dispatched to IQ
system.cpu00.iew.iewDispSquashedInsts            5172                       # Number of squashed instructions skipped by dispatch
system.cpu00.iew.iewDispLoadInsts            21202449                       # Number of dispatched load instructions
system.cpu00.iew.iewDispStoreInsts            7540446                       # Number of dispatched store instructions
system.cpu00.iew.iewDispNonSpecInsts             1953                       # Number of dispatched non-speculative instructions
system.cpu00.iew.iewIQFullEvents                22673                       # Number of times the IQ has become full, causing a stall
system.cpu00.iew.iewLSQFullEvents              301721                       # Number of times the LSQ has become full, causing a stall
system.cpu00.iew.memOrderViolationEvents          924                       # Number of memory order violations
system.cpu00.iew.predictedTakenIncorrect        17955                       # Number of branches that were predicted taken incorrectly
system.cpu00.iew.predictedNotTakenIncorrect         4073                       # Number of branches that were predicted not taken incorrectly
system.cpu00.iew.branchMispredicts              22028                       # Number of branch mispredicts detected at execute
system.cpu00.iew.iewExecutedInsts           116651574                       # Number of executed instructions
system.cpu00.iew.iewExecLoadInsts            21251786                       # Number of load instructions executed
system.cpu00.iew.iewExecSquashedInsts           77631                       # Number of squashed instructions skipped in execute
system.cpu00.iew.exec_swp                           0                       # number of swp insts executed
system.cpu00.iew.exec_nop                     4820807                       # number of nop insts executed
system.cpu00.iew.exec_refs                   28779809                       # number of memory reference insts executed
system.cpu00.iew.exec_branches               16317814                       # Number of branches executed
system.cpu00.iew.exec_stores                  7528023                       # Number of stores executed
system.cpu00.iew.exec_rate                   2.591037                       # Inst execution rate
system.cpu00.iew.wb_sent                    116520866                       # cumulative count of insts sent to commit
system.cpu00.iew.wb_count                   116505073                       # cumulative count of insts written-back
system.cpu00.iew.wb_producers                78212359                       # num instructions producing a value
system.cpu00.iew.wb_consumers               107018417                       # num instructions consuming a value
system.cpu00.iew.wb_rate                     2.587783                       # insts written-back per cycle
system.cpu00.iew.wb_fanout                   0.730831                       # average fanout of values written-back
system.cpu00.commit.commitSquashedInsts        726528                       # The number of squashed insts skipped by commit
system.cpu00.commit.commitNonSpecStalls          2778                       # The number of times commit has been forced to stall to communicate backwards
system.cpu00.commit.branchMispredicts           21184                       # The number of times a branch was mispredicted
system.cpu00.commit.committed_per_cycle::samples     44679477                       # Number of insts commited each cycle
system.cpu00.commit.committed_per_cycle::mean     2.703520                       # Number of insts commited each cycle
system.cpu00.commit.committed_per_cycle::stdev     3.259398                       # Number of insts commited each cycle
system.cpu00.commit.committed_per_cycle::underflows            0      0.00%      0.00% # Number of insts commited each cycle
system.cpu00.commit.committed_per_cycle::0     20514992     45.92%     45.92% # Number of insts commited each cycle
system.cpu00.commit.committed_per_cycle::1      3942008      8.82%     54.74% # Number of insts commited each cycle
system.cpu00.commit.committed_per_cycle::2      3348393      7.49%     62.23% # Number of insts commited each cycle
system.cpu00.commit.committed_per_cycle::3      1962961      4.39%     66.63% # Number of insts commited each cycle
system.cpu00.commit.committed_per_cycle::4      2205647      4.94%     71.56% # Number of insts commited each cycle
system.cpu00.commit.committed_per_cycle::5      1595531      3.57%     75.13% # Number of insts commited each cycle
system.cpu00.commit.committed_per_cycle::6       620197      1.39%     76.52% # Number of insts commited each cycle
system.cpu00.commit.committed_per_cycle::7       175229      0.39%     76.91% # Number of insts commited each cycle
system.cpu00.commit.committed_per_cycle::8     10314519     23.09%    100.00% # Number of insts commited each cycle
system.cpu00.commit.committed_per_cycle::overflows            0      0.00%    100.00% # Number of insts commited each cycle
system.cpu00.commit.committed_per_cycle::min_value            0                       # Number of insts commited each cycle
system.cpu00.commit.committed_per_cycle::max_value            8                       # Number of insts commited each cycle
system.cpu00.commit.committed_per_cycle::total     44679477                       # Number of insts commited each cycle
system.cpu00.commit.committedInsts          120791857                       # Number of instructions committed
system.cpu00.commit.committedOps            120791857                       # Number of ops (including micro ops) committed
system.cpu00.commit.swp_count                       0                       # Number of s/w prefetches committed
system.cpu00.commit.refs                     28565346                       # Number of memory references committed
system.cpu00.commit.loads                    21057426                       # Number of loads committed
system.cpu00.commit.membars                      1102                       # Number of memory barriers committed
system.cpu00.commit.branches                 16205499                       # Number of branches committed
system.cpu00.commit.fp_insts                 19355700                       # Number of committed floating point instructions.
system.cpu00.commit.int_insts               108332481                       # Number of committed integer instructions.
system.cpu00.commit.function_calls            3202145                       # Number of function calls committed.
system.cpu00.commit.op_class_0::No_OpClass      4776310      3.95%      3.95% # Class of committed instruction
system.cpu00.commit.op_class_0::IntAlu       76846580     63.62%     67.57% # Class of committed instruction
system.cpu00.commit.op_class_0::IntMult       2389242      1.98%     69.55% # Class of committed instruction
system.cpu00.commit.op_class_0::IntDiv              0      0.00%     69.55% # Class of committed instruction
system.cpu00.commit.op_class_0::FloatAdd      4744804      3.93%     73.48% # Class of committed instruction
system.cpu00.commit.op_class_0::FloatCmp           27      0.00%     73.48% # Class of committed instruction
system.cpu00.commit.op_class_0::FloatCvt            0      0.00%     73.48% # Class of committed instruction
system.cpu00.commit.op_class_0::FloatMult      3460317      2.86%     76.34% # Class of committed instruction
system.cpu00.commit.op_class_0::FloatDiv         8128      0.01%     76.35% # Class of committed instruction
system.cpu00.commit.op_class_0::FloatSqrt            0      0.00%     76.35% # Class of committed instruction
system.cpu00.commit.op_class_0::SimdAdd             0      0.00%     76.35% # Class of committed instruction
system.cpu00.commit.op_class_0::SimdAddAcc            0      0.00%     76.35% # Class of committed instruction
system.cpu00.commit.op_class_0::SimdAlu             0      0.00%     76.35% # Class of committed instruction
system.cpu00.commit.op_class_0::SimdCmp             0      0.00%     76.35% # Class of committed instruction
system.cpu00.commit.op_class_0::SimdCvt             0      0.00%     76.35% # Class of committed instruction
system.cpu00.commit.op_class_0::SimdMisc            0      0.00%     76.35% # Class of committed instruction
system.cpu00.commit.op_class_0::SimdMult            0      0.00%     76.35% # Class of committed instruction
system.cpu00.commit.op_class_0::SimdMultAcc            0      0.00%     76.35% # Class of committed instruction
system.cpu00.commit.op_class_0::SimdShift            0      0.00%     76.35% # Class of committed instruction
system.cpu00.commit.op_class_0::SimdShiftAcc            0      0.00%     76.35% # Class of committed instruction
system.cpu00.commit.op_class_0::SimdSqrt            0      0.00%     76.35% # Class of committed instruction
system.cpu00.commit.op_class_0::SimdFloatAdd            0      0.00%     76.35% # Class of committed instruction
system.cpu00.commit.op_class_0::SimdFloatAlu            0      0.00%     76.35% # Class of committed instruction
system.cpu00.commit.op_class_0::SimdFloatCmp            0      0.00%     76.35% # Class of committed instruction
system.cpu00.commit.op_class_0::SimdFloatCvt            0      0.00%     76.35% # Class of committed instruction
system.cpu00.commit.op_class_0::SimdFloatDiv            0      0.00%     76.35% # Class of committed instruction
system.cpu00.commit.op_class_0::SimdFloatMisc            0      0.00%     76.35% # Class of committed instruction
system.cpu00.commit.op_class_0::SimdFloatMult            0      0.00%     76.35% # Class of committed instruction
system.cpu00.commit.op_class_0::SimdFloatMultAcc            0      0.00%     76.35% # Class of committed instruction
system.cpu00.commit.op_class_0::SimdFloatSqrt            0      0.00%     76.35% # Class of committed instruction
system.cpu00.commit.op_class_0::MemRead      21058528     17.43%     93.78% # Class of committed instruction
system.cpu00.commit.op_class_0::MemWrite      7507921      6.22%    100.00% # Class of committed instruction
system.cpu00.commit.op_class_0::IprAccess            0      0.00%    100.00% # Class of committed instruction
system.cpu00.commit.op_class_0::InstPrefetch            0      0.00%    100.00% # Class of committed instruction
system.cpu00.commit.op_class_0::total       120791857                       # Class of committed instruction
system.cpu00.commit.bw_lim_events            10314519                       # number cycles where commit BW limit reached
system.cpu00.rob.rob_reads                  155847034                       # The number of ROB reads
system.cpu00.rob.rob_writes                 243142378                       # The number of ROB writes
system.cpu00.timesIdled                          1706                       # Number of times that the entire CPU went into an idle state and unscheduled itself
system.cpu00.idleCycles                        236143                       # Total number of cycles that the CPU has spent unscheduled due to idling
system.cpu00.quiesceCycles                     972242                       # Total number of cycles that CPU has spent quiesced or waiting for an interrupt
system.cpu00.committedInsts                 116015547                       # Number of Instructions Simulated
system.cpu00.committedOps                   116015547                       # Number of Ops (including micro ops) Simulated
system.cpu00.cpi                             0.388062                       # CPI: Cycles Per Instruction
system.cpu00.cpi_total                       0.388062                       # CPI: Total CPI of All Threads
system.cpu00.ipc                             2.576909                       # IPC: Instructions Per Cycle
system.cpu00.ipc_total                       2.576909                       # IPC: Total IPC of All Threads
system.cpu00.int_regfile_reads              148310027                       # number of integer regfile reads
system.cpu00.int_regfile_writes              79447824                       # number of integer regfile writes
system.cpu00.fp_regfile_reads                18305709                       # number of floating regfile reads
system.cpu00.fp_regfile_writes               14838495                       # number of floating regfile writes
system.cpu00.misc_regfile_reads                265189                       # number of misc regfile reads
system.cpu00.misc_regfile_writes                 2453                       # number of misc regfile writes
system.cpu00.dcache.tags.replacements          503126                       # number of replacements
system.cpu00.dcache.tags.tagsinuse          63.949877                       # Cycle average of tags in use
system.cpu00.dcache.tags.total_refs          26334218                       # Total number of references to valid blocks.
system.cpu00.dcache.tags.sampled_refs          503190                       # Sample count of references to valid blocks.
system.cpu00.dcache.tags.avg_refs           52.334542                       # Average number of references to valid blocks.
system.cpu00.dcache.tags.warmup_cycle        85537836                       # Cycle when the warmup percentage was hit.
system.cpu00.dcache.tags.occ_blocks::cpu00.data    63.949877                       # Average occupied blocks per requestor
system.cpu00.dcache.tags.occ_percent::cpu00.data     0.999217                       # Average percentage of cache occupancy
system.cpu00.dcache.tags.occ_percent::total     0.999217                       # Average percentage of cache occupancy
system.cpu00.dcache.tags.occ_task_id_blocks::1024           64                       # Occupied blocks per task id
system.cpu00.dcache.tags.age_task_id_blocks_1024::0           33                       # Occupied blocks per task id
system.cpu00.dcache.tags.age_task_id_blocks_1024::1           31                       # Occupied blocks per task id
system.cpu00.dcache.tags.occ_task_id_percent::1024            1                       # Percentage of cache occupancy per task id
system.cpu00.dcache.tags.tag_accesses        55616235                       # Number of tag accesses
system.cpu00.dcache.tags.data_accesses       55616235                       # Number of data accesses
system.cpu00.dcache.ReadReq_hits::cpu00.data     18996386                       # number of ReadReq hits
system.cpu00.dcache.ReadReq_hits::total      18996386                       # number of ReadReq hits
system.cpu00.dcache.WriteReq_hits::cpu00.data      7335377                       # number of WriteReq hits
system.cpu00.dcache.WriteReq_hits::total      7335377                       # number of WriteReq hits
system.cpu00.dcache.LoadLockedReq_hits::cpu00.data          927                       # number of LoadLockedReq hits
system.cpu00.dcache.LoadLockedReq_hits::total          927                       # number of LoadLockedReq hits
system.cpu00.dcache.StoreCondReq_hits::cpu00.data         1214                       # number of StoreCondReq hits
system.cpu00.dcache.StoreCondReq_hits::total         1214                       # number of StoreCondReq hits
system.cpu00.dcache.demand_hits::cpu00.data     26331763                       # number of demand (read+write) hits
system.cpu00.dcache.demand_hits::total       26331763                       # number of demand (read+write) hits
system.cpu00.dcache.overall_hits::cpu00.data     26331763                       # number of overall hits
system.cpu00.dcache.overall_hits::total      26331763                       # number of overall hits
system.cpu00.dcache.ReadReq_misses::cpu00.data      1050851                       # number of ReadReq misses
system.cpu00.dcache.ReadReq_misses::total      1050851                       # number of ReadReq misses
system.cpu00.dcache.WriteReq_misses::cpu00.data       171318                       # number of WriteReq misses
system.cpu00.dcache.WriteReq_misses::total       171318                       # number of WriteReq misses
system.cpu00.dcache.LoadLockedReq_misses::cpu00.data          355                       # number of LoadLockedReq misses
system.cpu00.dcache.LoadLockedReq_misses::total          355                       # number of LoadLockedReq misses
system.cpu00.dcache.StoreCondReq_misses::cpu00.data           11                       # number of StoreCondReq misses
system.cpu00.dcache.StoreCondReq_misses::total           11                       # number of StoreCondReq misses
system.cpu00.dcache.demand_misses::cpu00.data      1222169                       # number of demand (read+write) misses
system.cpu00.dcache.demand_misses::total      1222169                       # number of demand (read+write) misses
system.cpu00.dcache.overall_misses::cpu00.data      1222169                       # number of overall misses
system.cpu00.dcache.overall_misses::total      1222169                       # number of overall misses
system.cpu00.dcache.ReadReq_miss_latency::cpu00.data  78416534835                       # number of ReadReq miss cycles
system.cpu00.dcache.ReadReq_miss_latency::total  78416534835                       # number of ReadReq miss cycles
system.cpu00.dcache.WriteReq_miss_latency::cpu00.data  13640592056                       # number of WriteReq miss cycles
system.cpu00.dcache.WriteReq_miss_latency::total  13640592056                       # number of WriteReq miss cycles
system.cpu00.dcache.LoadLockedReq_miss_latency::cpu00.data      4727592                       # number of LoadLockedReq miss cycles
system.cpu00.dcache.LoadLockedReq_miss_latency::total      4727592                       # number of LoadLockedReq miss cycles
system.cpu00.dcache.StoreCondReq_miss_latency::cpu00.data        80109                       # number of StoreCondReq miss cycles
system.cpu00.dcache.StoreCondReq_miss_latency::total        80109                       # number of StoreCondReq miss cycles
system.cpu00.dcache.demand_miss_latency::cpu00.data  92057126891                       # number of demand (read+write) miss cycles
system.cpu00.dcache.demand_miss_latency::total  92057126891                       # number of demand (read+write) miss cycles
system.cpu00.dcache.overall_miss_latency::cpu00.data  92057126891                       # number of overall miss cycles
system.cpu00.dcache.overall_miss_latency::total  92057126891                       # number of overall miss cycles
system.cpu00.dcache.ReadReq_accesses::cpu00.data     20047237                       # number of ReadReq accesses(hits+misses)
system.cpu00.dcache.ReadReq_accesses::total     20047237                       # number of ReadReq accesses(hits+misses)
system.cpu00.dcache.WriteReq_accesses::cpu00.data      7506695                       # number of WriteReq accesses(hits+misses)
system.cpu00.dcache.WriteReq_accesses::total      7506695                       # number of WriteReq accesses(hits+misses)
system.cpu00.dcache.LoadLockedReq_accesses::cpu00.data         1282                       # number of LoadLockedReq accesses(hits+misses)
system.cpu00.dcache.LoadLockedReq_accesses::total         1282                       # number of LoadLockedReq accesses(hits+misses)
system.cpu00.dcache.StoreCondReq_accesses::cpu00.data         1225                       # number of StoreCondReq accesses(hits+misses)
system.cpu00.dcache.StoreCondReq_accesses::total         1225                       # number of StoreCondReq accesses(hits+misses)
system.cpu00.dcache.demand_accesses::cpu00.data     27553932                       # number of demand (read+write) accesses
system.cpu00.dcache.demand_accesses::total     27553932                       # number of demand (read+write) accesses
system.cpu00.dcache.overall_accesses::cpu00.data     27553932                       # number of overall (read+write) accesses
system.cpu00.dcache.overall_accesses::total     27553932                       # number of overall (read+write) accesses
system.cpu00.dcache.ReadReq_miss_rate::cpu00.data     0.052419                       # miss rate for ReadReq accesses
system.cpu00.dcache.ReadReq_miss_rate::total     0.052419                       # miss rate for ReadReq accesses
system.cpu00.dcache.WriteReq_miss_rate::cpu00.data     0.022822                       # miss rate for WriteReq accesses
system.cpu00.dcache.WriteReq_miss_rate::total     0.022822                       # miss rate for WriteReq accesses
system.cpu00.dcache.LoadLockedReq_miss_rate::cpu00.data     0.276911                       # miss rate for LoadLockedReq accesses
system.cpu00.dcache.LoadLockedReq_miss_rate::total     0.276911                       # miss rate for LoadLockedReq accesses
system.cpu00.dcache.StoreCondReq_miss_rate::cpu00.data     0.008980                       # miss rate for StoreCondReq accesses
system.cpu00.dcache.StoreCondReq_miss_rate::total     0.008980                       # miss rate for StoreCondReq accesses
system.cpu00.dcache.demand_miss_rate::cpu00.data     0.044356                       # miss rate for demand accesses
system.cpu00.dcache.demand_miss_rate::total     0.044356                       # miss rate for demand accesses
system.cpu00.dcache.overall_miss_rate::cpu00.data     0.044356                       # miss rate for overall accesses
system.cpu00.dcache.overall_miss_rate::total     0.044356                       # miss rate for overall accesses
system.cpu00.dcache.ReadReq_avg_miss_latency::cpu00.data 74621.934827                       # average ReadReq miss latency
system.cpu00.dcache.ReadReq_avg_miss_latency::total 74621.934827                       # average ReadReq miss latency
system.cpu00.dcache.WriteReq_avg_miss_latency::cpu00.data 79621.476179                       # average WriteReq miss latency
system.cpu00.dcache.WriteReq_avg_miss_latency::total 79621.476179                       # average WriteReq miss latency
system.cpu00.dcache.LoadLockedReq_avg_miss_latency::cpu00.data 13317.160563                       # average LoadLockedReq miss latency
system.cpu00.dcache.LoadLockedReq_avg_miss_latency::total 13317.160563                       # average LoadLockedReq miss latency
system.cpu00.dcache.StoreCondReq_avg_miss_latency::cpu00.data  7282.636364                       # average StoreCondReq miss latency
system.cpu00.dcache.StoreCondReq_avg_miss_latency::total  7282.636364                       # average StoreCondReq miss latency
system.cpu00.dcache.demand_avg_miss_latency::cpu00.data 75322.747420                       # average overall miss latency
system.cpu00.dcache.demand_avg_miss_latency::total 75322.747420                       # average overall miss latency
system.cpu00.dcache.overall_avg_miss_latency::cpu00.data 75322.747420                       # average overall miss latency
system.cpu00.dcache.overall_avg_miss_latency::total 75322.747420                       # average overall miss latency
system.cpu00.dcache.blocked_cycles::no_mshrs       397863                       # number of cycles access was blocked
system.cpu00.dcache.blocked_cycles::no_targets          220                       # number of cycles access was blocked
system.cpu00.dcache.blocked::no_mshrs           11762                       # number of cycles access was blocked
system.cpu00.dcache.blocked::no_targets             2                       # number of cycles access was blocked
system.cpu00.dcache.avg_blocked_cycles::no_mshrs    33.826135                       # average number of cycles each access was blocked
system.cpu00.dcache.avg_blocked_cycles::no_targets          110                       # average number of cycles each access was blocked
system.cpu00.dcache.fast_writes                     0                       # number of fast writes performed
system.cpu00.dcache.cache_copies                    0                       # number of cache copies performed
system.cpu00.dcache.writebacks::writebacks       274244                       # number of writebacks
system.cpu00.dcache.writebacks::total          274244                       # number of writebacks
system.cpu00.dcache.ReadReq_mshr_hits::cpu00.data       641291                       # number of ReadReq MSHR hits
system.cpu00.dcache.ReadReq_mshr_hits::total       641291                       # number of ReadReq MSHR hits
system.cpu00.dcache.WriteReq_mshr_hits::cpu00.data        77561                       # number of WriteReq MSHR hits
system.cpu00.dcache.WriteReq_mshr_hits::total        77561                       # number of WriteReq MSHR hits
system.cpu00.dcache.LoadLockedReq_mshr_hits::cpu00.data          165                       # number of LoadLockedReq MSHR hits
system.cpu00.dcache.LoadLockedReq_mshr_hits::total          165                       # number of LoadLockedReq MSHR hits
system.cpu00.dcache.demand_mshr_hits::cpu00.data       718852                       # number of demand (read+write) MSHR hits
system.cpu00.dcache.demand_mshr_hits::total       718852                       # number of demand (read+write) MSHR hits
system.cpu00.dcache.overall_mshr_hits::cpu00.data       718852                       # number of overall MSHR hits
system.cpu00.dcache.overall_mshr_hits::total       718852                       # number of overall MSHR hits
system.cpu00.dcache.ReadReq_mshr_misses::cpu00.data       409560                       # number of ReadReq MSHR misses
system.cpu00.dcache.ReadReq_mshr_misses::total       409560                       # number of ReadReq MSHR misses
system.cpu00.dcache.WriteReq_mshr_misses::cpu00.data        93757                       # number of WriteReq MSHR misses
system.cpu00.dcache.WriteReq_mshr_misses::total        93757                       # number of WriteReq MSHR misses
system.cpu00.dcache.LoadLockedReq_mshr_misses::cpu00.data          190                       # number of LoadLockedReq MSHR misses
system.cpu00.dcache.LoadLockedReq_mshr_misses::total          190                       # number of LoadLockedReq MSHR misses
system.cpu00.dcache.StoreCondReq_mshr_misses::cpu00.data           11                       # number of StoreCondReq MSHR misses
system.cpu00.dcache.StoreCondReq_mshr_misses::total           11                       # number of StoreCondReq MSHR misses
system.cpu00.dcache.demand_mshr_misses::cpu00.data       503317                       # number of demand (read+write) MSHR misses
system.cpu00.dcache.demand_mshr_misses::total       503317                       # number of demand (read+write) MSHR misses
system.cpu00.dcache.overall_mshr_misses::cpu00.data       503317                       # number of overall MSHR misses
system.cpu00.dcache.overall_mshr_misses::total       503317                       # number of overall MSHR misses
system.cpu00.dcache.ReadReq_mshr_miss_latency::cpu00.data  16917841224                       # number of ReadReq MSHR miss cycles
system.cpu00.dcache.ReadReq_mshr_miss_latency::total  16917841224                       # number of ReadReq MSHR miss cycles
system.cpu00.dcache.WriteReq_mshr_miss_latency::cpu00.data   8764646272                       # number of WriteReq MSHR miss cycles
system.cpu00.dcache.WriteReq_mshr_miss_latency::total   8764646272                       # number of WriteReq MSHR miss cycles
system.cpu00.dcache.LoadLockedReq_mshr_miss_latency::cpu00.data      2065419                       # number of LoadLockedReq MSHR miss cycles
system.cpu00.dcache.LoadLockedReq_mshr_miss_latency::total      2065419                       # number of LoadLockedReq MSHR miss cycles
system.cpu00.dcache.StoreCondReq_mshr_miss_latency::cpu00.data        67338                       # number of StoreCondReq MSHR miss cycles
system.cpu00.dcache.StoreCondReq_mshr_miss_latency::total        67338                       # number of StoreCondReq MSHR miss cycles
system.cpu00.dcache.demand_mshr_miss_latency::cpu00.data  25682487496                       # number of demand (read+write) MSHR miss cycles
system.cpu00.dcache.demand_mshr_miss_latency::total  25682487496                       # number of demand (read+write) MSHR miss cycles
system.cpu00.dcache.overall_mshr_miss_latency::cpu00.data  25682487496                       # number of overall MSHR miss cycles
system.cpu00.dcache.overall_mshr_miss_latency::total  25682487496                       # number of overall MSHR miss cycles
system.cpu00.dcache.ReadReq_mshr_miss_rate::cpu00.data     0.020430                       # mshr miss rate for ReadReq accesses
system.cpu00.dcache.ReadReq_mshr_miss_rate::total     0.020430                       # mshr miss rate for ReadReq accesses
system.cpu00.dcache.WriteReq_mshr_miss_rate::cpu00.data     0.012490                       # mshr miss rate for WriteReq accesses
system.cpu00.dcache.WriteReq_mshr_miss_rate::total     0.012490                       # mshr miss rate for WriteReq accesses
system.cpu00.dcache.LoadLockedReq_mshr_miss_rate::cpu00.data     0.148206                       # mshr miss rate for LoadLockedReq accesses
system.cpu00.dcache.LoadLockedReq_mshr_miss_rate::total     0.148206                       # mshr miss rate for LoadLockedReq accesses
system.cpu00.dcache.StoreCondReq_mshr_miss_rate::cpu00.data     0.008980                       # mshr miss rate for StoreCondReq accesses
system.cpu00.dcache.StoreCondReq_mshr_miss_rate::total     0.008980                       # mshr miss rate for StoreCondReq accesses
system.cpu00.dcache.demand_mshr_miss_rate::cpu00.data     0.018267                       # mshr miss rate for demand accesses
system.cpu00.dcache.demand_mshr_miss_rate::total     0.018267                       # mshr miss rate for demand accesses
system.cpu00.dcache.overall_mshr_miss_rate::cpu00.data     0.018267                       # mshr miss rate for overall accesses
system.cpu00.dcache.overall_mshr_miss_rate::total     0.018267                       # mshr miss rate for overall accesses
system.cpu00.dcache.ReadReq_avg_mshr_miss_latency::cpu00.data 41307.357222                       # average ReadReq mshr miss latency
system.cpu00.dcache.ReadReq_avg_mshr_miss_latency::total 41307.357222                       # average ReadReq mshr miss latency
system.cpu00.dcache.WriteReq_avg_mshr_miss_latency::cpu00.data 93482.580202                       # average WriteReq mshr miss latency
system.cpu00.dcache.WriteReq_avg_mshr_miss_latency::total 93482.580202                       # average WriteReq mshr miss latency
[...]
system.tol2bus.pkt_count_system.cpu06.dcache.mem_side::system.l2.cpu_side       327063                       # Packet count per connected master and slave (bytes)
system.tol2bus.pkt_count_system.cpu07.icache.mem_side::system.l2.cpu_side          920                       # Packet count per connected master and slave (bytes)
system.tol2bus.pkt_count_system.cpu07.dcache.mem_side::system.l2.cpu_side       336873                       # Packet count per connected master and slave (bytes)
system.tol2bus.pkt_count_system.cpu08.icache.mem_side::system.l2.cpu_side          841                       # Packet count per connected master and slave (bytes)
system.tol2bus.pkt_count_system.cpu08.dcache.mem_side::system.l2.cpu_side       357592                       # Packet count per connected master and slave (bytes)
system.tol2bus.pkt_count_system.cpu09.icache.mem_side::system.l2.cpu_side          849                       # Packet count per connected master and slave (bytes)
system.tol2bus.pkt_count_system.cpu09.dcache.mem_side::system.l2.cpu_side       322406                       # Packet count per connected master and slave (bytes)
system.tol2bus.pkt_count_system.cpu10.icache.mem_side::system.l2.cpu_side          843                       # Packet count per connected master and slave (bytes)
system.tol2bus.pkt_count_system.cpu10.dcache.mem_side::system.l2.cpu_side       341048                       # Packet count per connected master and slave (bytes)
system.tol2bus.pkt_count_system.cpu11.icache.mem_side::system.l2.cpu_side          859                       # Packet count per connected master and slave (bytes)
system.tol2bus.pkt_count_system.cpu11.dcache.mem_side::system.l2.cpu_side       356659                       # Packet count per connected master and slave (bytes)
system.tol2bus.pkt_count_system.cpu12.icache.mem_side::system.l2.cpu_side          844                       # Packet count per connected master and slave (bytes)
system.tol2bus.pkt_count_system.cpu12.dcache.mem_side::system.l2.cpu_side       373080                       # Packet count per connected master and slave (bytes)
system.tol2bus.pkt_count_system.cpu13.icache.mem_side::system.l2.cpu_side          851                       # Packet count per connected master and slave (bytes)
system.tol2bus.pkt_count_system.cpu13.dcache.mem_side::system.l2.cpu_side       333882                       # Packet count per connected master and slave (bytes)
system.tol2bus.pkt_count_system.cpu14.icache.mem_side::system.l2.cpu_side          844                       # Packet count per connected master and slave (bytes)
system.tol2bus.pkt_count_system.cpu14.dcache.mem_side::system.l2.cpu_side       352804                       # Packet count per connected master and slave (bytes)
system.tol2bus.pkt_count_system.cpu15.icache.mem_side::system.l2.cpu_side          840                       # Packet count per connected master and slave (bytes)
system.tol2bus.pkt_count_system.cpu15.dcache.mem_side::system.l2.cpu_side       371764                       # Packet count per connected master and slave (bytes)
system.tol2bus.pkt_count::total               6515012                       # Packet count per connected master and slave (bytes)
system.tol2bus.pkt_size_system.cpu00.icache.mem_side::system.l2.cpu_side       985344                       # Cumulative packet size per connected master and slave (bytes)
system.tol2bus.pkt_size_system.cpu00.dcache.mem_side::system.l2.cpu_side     45428032                       # Cumulative packet size per connected master and slave (bytes)
system.tol2bus.pkt_size_system.cpu01.icache.mem_side::system.l2.cpu_side        41792                       # Cumulative packet size per connected master and slave (bytes)
system.tol2bus.pkt_size_system.cpu01.dcache.mem_side::system.l2.cpu_side      8423488                       # Cumulative packet size per connected master and slave (bytes)
system.tol2bus.pkt_size_system.cpu02.icache.mem_side::system.l2.cpu_side        31808                       # Cumulative packet size per connected master and slave (bytes)
system.tol2bus.pkt_size_system.cpu02.dcache.mem_side::system.l2.cpu_side      9184192                       # Cumulative packet size per connected master and slave (bytes)
system.tol2bus.pkt_size_system.cpu03.icache.mem_side::system.l2.cpu_side        32064                       # Cumulative packet size per connected master and slave (bytes)
system.tol2bus.pkt_size_system.cpu03.dcache.mem_side::system.l2.cpu_side      9147264                       # Cumulative packet size per connected master and slave (bytes)
system.tol2bus.pkt_size_system.cpu04.icache.mem_side::system.l2.cpu_side        28480                       # Cumulative packet size per connected master and slave (bytes)
system.tol2bus.pkt_size_system.cpu04.dcache.mem_side::system.l2.cpu_side      9899328                       # Cumulative packet size per connected master and slave (bytes)
system.tol2bus.pkt_size_system.cpu05.icache.mem_side::system.l2.cpu_side        28672                       # Cumulative packet size per connected master and slave (bytes)
system.tol2bus.pkt_size_system.cpu05.dcache.mem_side::system.l2.cpu_side      8707520                       # Cumulative packet size per connected master and slave (bytes)
system.tol2bus.pkt_size_system.cpu06.icache.mem_side::system.l2.cpu_side        28736                       # Cumulative packet size per connected master and slave (bytes)
system.tol2bus.pkt_size_system.cpu06.dcache.mem_side::system.l2.cpu_side      9989440                       # Cumulative packet size per connected master and slave (bytes)
system.tol2bus.pkt_size_system.cpu07.icache.mem_side::system.l2.cpu_side        31488                       # Cumulative packet size per connected master and slave (bytes)
system.tol2bus.pkt_size_system.cpu07.dcache.mem_side::system.l2.cpu_side      9534400                       # Cumulative packet size per connected master and slave (bytes)
system.tol2bus.pkt_size_system.cpu08.icache.mem_side::system.l2.cpu_side        28544                       # Cumulative packet size per connected master and slave (bytes)
system.tol2bus.pkt_size_system.cpu08.dcache.mem_side::system.l2.cpu_side     10783872                       # Cumulative packet size per connected master and slave (bytes)
system.tol2bus.pkt_size_system.cpu09.icache.mem_side::system.l2.cpu_side        28800                       # Cumulative packet size per connected master and slave (bytes)
system.tol2bus.pkt_size_system.cpu09.dcache.mem_side::system.l2.cpu_side      9782656                       # Cumulative packet size per connected master and slave (bytes)
system.tol2bus.pkt_size_system.cpu10.icache.mem_side::system.l2.cpu_side        28608                       # Cumulative packet size per connected master and slave (bytes)
system.tol2bus.pkt_size_system.cpu10.dcache.mem_side::system.l2.cpu_side     10424192                       # Cumulative packet size per connected master and slave (bytes)
system.tol2bus.pkt_size_system.cpu11.icache.mem_side::system.l2.cpu_side        29120                       # Cumulative packet size per connected master and slave (bytes)
system.tol2bus.pkt_size_system.cpu11.dcache.mem_side::system.l2.cpu_side     10609792                       # Cumulative packet size per connected master and slave (bytes)
system.tol2bus.pkt_size_system.cpu12.icache.mem_side::system.l2.cpu_side        28608                       # Cumulative packet size per connected master and slave (bytes)
system.tol2bus.pkt_size_system.cpu12.dcache.mem_side::system.l2.cpu_side     11172480                       # Cumulative packet size per connected master and slave (bytes)
system.tol2bus.pkt_size_system.cpu13.icache.mem_side::system.l2.cpu_side        28864                       # Cumulative packet size per connected master and slave (bytes)
system.tol2bus.pkt_size_system.cpu13.dcache.mem_side::system.l2.cpu_side      9902976                       # Cumulative packet size per connected master and slave (bytes)
system.tol2bus.pkt_size_system.cpu14.icache.mem_side::system.l2.cpu_side        28608                       # Cumulative packet size per connected master and slave (bytes)
system.tol2bus.pkt_size_system.cpu14.dcache.mem_side::system.l2.cpu_side     10492032                       # Cumulative packet size per connected master and slave (bytes)
system.tol2bus.pkt_size_system.cpu15.icache.mem_side::system.l2.cpu_side        28480                       # Cumulative packet size per connected master and slave (bytes)
system.tol2bus.pkt_size_system.cpu15.dcache.mem_side::system.l2.cpu_side     11073536                       # Cumulative packet size per connected master and slave (bytes)
system.tol2bus.pkt_size::total              195993216                       # Cumulative packet size per connected master and slave (bytes)
system.tol2bus.snoops                          797040                       # Total snoops (count)
system.tol2bus.snoop_fanout::samples          2700676                       # Request fanout histogram
system.tol2bus.snoop_fanout::mean            0.922757                       # Request fanout histogram
system.tol2bus.snoop_fanout::stdev           2.386481                       # Request fanout histogram
system.tol2bus.snoop_fanout::underflows             0      0.00%      0.00% # Request fanout histogram
system.tol2bus.snoop_fanout::0                1811607     67.08%     67.08% # Request fanout histogram
system.tol2bus.snoop_fanout::1                 382443     14.16%     81.24% # Request fanout histogram
system.tol2bus.snoop_fanout::2                 257437      9.53%     90.77% # Request fanout histogram
system.tol2bus.snoop_fanout::3                 153296      5.68%     96.45% # Request fanout histogram
system.tol2bus.snoop_fanout::4                   5412      0.20%     96.65% # Request fanout histogram
system.tol2bus.snoop_fanout::5                   5084      0.19%     96.84% # Request fanout histogram
system.tol2bus.snoop_fanout::6                   5168      0.19%     97.03% # Request fanout histogram
system.tol2bus.snoop_fanout::7                   3774      0.14%     97.17% # Request fanout histogram
system.tol2bus.snoop_fanout::8                   4065      0.15%     97.32% # Request fanout histogram
system.tol2bus.snoop_fanout::9                   4610      0.17%     97.49% # Request fanout histogram
system.tol2bus.snoop_fanout::10                  4465      0.17%     97.66% # Request fanout histogram
system.tol2bus.snoop_fanout::11                  4090      0.15%     97.81% # Request fanout histogram
system.tol2bus.snoop_fanout::12                  4075      0.15%     97.96% # Request fanout histogram
system.tol2bus.snoop_fanout::13                  3404      0.13%     98.08% # Request fanout histogram
system.tol2bus.snoop_fanout::14                  2818      0.10%     98.19% # Request fanout histogram
system.tol2bus.snoop_fanout::15                 48734      1.80%     99.99% # Request fanout histogram
system.tol2bus.snoop_fanout::16                   194      0.01%    100.00% # Request fanout histogram
system.tol2bus.snoop_fanout::17                     0      0.00%    100.00% # Request fanout histogram
system.tol2bus.snoop_fanout::18                     0      0.00%    100.00% # Request fanout histogram
system.tol2bus.snoop_fanout::19                     0      0.00%    100.00% # Request fanout histogram
system.tol2bus.snoop_fanout::20                     0      0.00%    100.00% # Request fanout histogram
system.tol2bus.snoop_fanout::21                     0      0.00%    100.00% # Request fanout histogram
system.tol2bus.snoop_fanout::22                     0      0.00%    100.00% # Request fanout histogram
system.tol2bus.snoop_fanout::23                     0      0.00%    100.00% # Request fanout histogram
system.tol2bus.snoop_fanout::24                     0      0.00%    100.00% # Request fanout histogram
system.tol2bus.snoop_fanout::25                     0      0.00%    100.00% # Request fanout histogram
system.tol2bus.snoop_fanout::26                     0      0.00%    100.00% # Request fanout histogram
system.tol2bus.snoop_fanout::27                     0      0.00%    100.00% # Request fanout histogram
system.tol2bus.snoop_fanout::28                     0      0.00%    100.00% # Request fanout histogram
system.tol2bus.snoop_fanout::29                     0      0.00%    100.00% # Request fanout histogram
system.tol2bus.snoop_fanout::30                     0      0.00%    100.00% # Request fanout histogram
system.tol2bus.snoop_fanout::31                     0      0.00%    100.00% # Request fanout histogram
system.tol2bus.snoop_fanout::32                     0      0.00%    100.00% # Request fanout histogram
system.tol2bus.snoop_fanout::overflows              0      0.00%    100.00% # Request fanout histogram
system.tol2bus.snoop_fanout::min_value              0                       # Request fanout histogram
system.tol2bus.snoop_fanout::max_value             16                       # Request fanout histogram
system.tol2bus.snoop_fanout::total            2700676                       # Request fanout histogram
system.tol2bus.reqLayer0.occupancy         8230904340                       # Layer occupancy (ticks)
system.tol2bus.reqLayer0.utilization             15.4                       # Layer utilization (%)
system.tol2bus.respLayer0.occupancy          27951742                       # Layer occupancy (ticks)
system.tol2bus.respLayer0.utilization             0.1                       # Layer utilization (%)
system.tol2bus.respLayer1.occupancy        1765064407                       # Layer occupancy (ticks)
system.tol2bus.respLayer1.utilization             3.3                       # Layer utilization (%)
system.tol2bus.respLayer2.occupancy           1834283                       # Layer occupancy (ticks)
system.tol2bus.respLayer2.utilization             0.0                       # Layer utilization (%)
system.tol2bus.respLayer3.occupancy         374000926                       # Layer occupancy (ticks)
system.tol2bus.respLayer3.utilization             0.7                       # Layer utilization (%)
system.tol2bus.respLayer4.occupancy           1547114                       # Layer occupancy (ticks)
system.tol2bus.respLayer4.utilization             0.0                       # Layer utilization (%)
system.tol2bus.respLayer5.occupancy         392624797                       # Layer occupancy (ticks)
system.tol2bus.respLayer5.utilization             0.7                       # Layer utilization (%)
system.tol2bus.respLayer6.occupancy           1557130                       # Layer occupancy (ticks)
system.tol2bus.respLayer6.utilization             0.0                       # Layer utilization (%)
system.tol2bus.respLayer7.occupancy         411334370                       # Layer occupancy (ticks)
system.tol2bus.respLayer7.utilization             0.8                       # Layer utilization (%)
system.tol2bus.respLayer8.occupancy           1421096                       # Layer occupancy (ticks)
system.tol2bus.respLayer8.utilization             0.0                       # Layer utilization (%)
system.tol2bus.respLayer9.occupancy         431073884                       # Layer occupancy (ticks)
system.tol2bus.respLayer9.utilization             0.8                       # Layer utilization (%)
system.tol2bus.respLayer10.occupancy          1424097                       # Layer occupancy (ticks)
system.tol2bus.respLayer10.utilization            0.0                       # Layer utilization (%)
system.tol2bus.respLayer11.occupancy        392176823                       # Layer occupancy (ticks)
system.tol2bus.respLayer11.utilization            0.7                       # Layer utilization (%)
system.tol2bus.respLayer12.occupancy          1435975                       # Layer occupancy (ticks)
system.tol2bus.respLayer12.utilization            0.0                       # Layer utilization (%)
system.tol2bus.respLayer13.occupancy        414375521                       # Layer occupancy (ticks)
system.tol2bus.respLayer13.utilization            0.8                       # Layer utilization (%)
system.tol2bus.respLayer14.occupancy          1534889                       # Layer occupancy (ticks)
system.tol2bus.respLayer14.utilization            0.0                       # Layer utilization (%)
system.tol2bus.respLayer15.occupancy        434260501                       # Layer occupancy (ticks)
system.tol2bus.respLayer15.utilization            0.8                       # Layer utilization (%)
system.tol2bus.respLayer16.occupancy          1428992                       # Layer occupancy (ticks)
system.tol2bus.respLayer16.utilization            0.0                       # Layer utilization (%)
system.tol2bus.respLayer17.occupancy        453798744                       # Layer occupancy (ticks)
system.tol2bus.respLayer17.utilization            0.8                       # Layer utilization (%)
system.tol2bus.respLayer18.occupancy          1427671                       # Layer occupancy (ticks)
system.tol2bus.respLayer18.utilization            0.0                       # Layer utilization (%)
system.tol2bus.respLayer19.occupancy        410869274                       # Layer occupancy (ticks)
system.tol2bus.respLayer19.utilization            0.8                       # Layer utilization (%)
system.tol2bus.respLayer20.occupancy          1429009                       # Layer occupancy (ticks)
system.tol2bus.respLayer20.utilization            0.0                       # Layer utilization (%)
system.tol2bus.respLayer21.occupancy        433783039                       # Layer occupancy (ticks)
system.tol2bus.respLayer21.utilization            0.8                       # Layer utilization (%)
system.tol2bus.respLayer22.occupancy          1446436                       # Layer occupancy (ticks)
system.tol2bus.respLayer22.utilization            0.0                       # Layer utilization (%)
system.tol2bus.respLayer23.occupancy        456365882                       # Layer occupancy (ticks)
system.tol2bus.respLayer23.utilization            0.9                       # Layer utilization (%)
system.tol2bus.respLayer24.occupancy          1421312                       # Layer occupancy (ticks)
system.tol2bus.respLayer24.utilization            0.0                       # Layer utilization (%)
system.tol2bus.respLayer25.occupancy        477568233                       # Layer occupancy (ticks)
system.tol2bus.respLayer25.utilization            0.9                       # Layer utilization (%)
system.tol2bus.respLayer26.occupancy          1427040                       # Layer occupancy (ticks)
system.tol2bus.respLayer26.utilization            0.0                       # Layer utilization (%)
system.tol2bus.respLayer27.occupancy        428509595                       # Layer occupancy (ticks)
system.tol2bus.respLayer27.utilization            0.8                       # Layer utilization (%)
system.tol2bus.respLayer28.occupancy          1421585                       # Layer occupancy (ticks)
system.tol2bus.respLayer28.utilization            0.0                       # Layer utilization (%)
system.tol2bus.respLayer29.occupancy        451833325                       # Layer occupancy (ticks)
system.tol2bus.respLayer29.utilization            0.8                       # Layer utilization (%)
system.tol2bus.respLayer30.occupancy          1409652                       # Layer occupancy (ticks)
system.tol2bus.respLayer30.utilization            0.0                       # Layer utilization (%)
system.tol2bus.respLayer31.occupancy        476522018                       # Layer occupancy (ticks)
system.tol2bus.respLayer31.utilization            0.9                       # Layer utilization (%)

---------- End Simulation Statistics   ----------
