
---------- Begin Simulation Statistics ----------
sim_seconds                                  0.001311                       # Number of seconds simulated
sim_ticks                                  1310862690                       # Number of ticks simulated
final_tick                                 1310862690                       # Number of ticks from beginning of simulation (restored from checkpoints and never reset)
sim_freq                                 1000000000000                       # Frequency of simulated ticks
host_inst_rate                                 228424                       # Simulator instruction rate (inst/s)
host_op_rate                                   228423                       # Simulator op (including micro ops) rate (op/s)
host_tick_rate                              125565001                       # Simulator tick rate (ticks/s)
host_mem_usage                                 694892                       # Number of bytes of host memory used
host_seconds                                    10.44                       # Real time elapsed on the host
sim_insts                                     2384668                       # Number of instructions simulated
sim_ops                                       2384668                       # Number of ops (including micro ops) simulated
system.voltage_domain.voltage                       1                       # Voltage in Volts
system.clk_domain.clock                          1000                       # Clock period in ticks
system.mem_ctrls.bytes_read::cpu00.inst        107200                       # Number of bytes read from this memory
system.mem_ctrls.bytes_read::cpu00.data        373184                       # Number of bytes read from this memory
system.mem_ctrls.bytes_read::cpu01.inst         11648                       # Number of bytes read from this memory
system.mem_ctrls.bytes_read::cpu01.data          6144                       # Number of bytes read from this memory
system.mem_ctrls.bytes_read::cpu02.inst          3520                       # Number of bytes read from this memory
system.mem_ctrls.bytes_read::cpu02.data          5632                       # Number of bytes read from this memory
system.mem_ctrls.bytes_read::cpu03.inst          1728                       # Number of bytes read from this memory
system.mem_ctrls.bytes_read::cpu03.data          5696                       # Number of bytes read from this memory
system.mem_ctrls.bytes_read::cpu04.inst           256                       # Number of bytes read from this memory
system.mem_ctrls.bytes_read::cpu04.data          6016                       # Number of bytes read from this memory
system.mem_ctrls.bytes_read::cpu05.inst           576                       # Number of bytes read from this memory
system.mem_ctrls.bytes_read::cpu05.data          5312                       # Number of bytes read from this memory
system.mem_ctrls.bytes_read::cpu06.inst           448                       # Number of bytes read from this memory
system.mem_ctrls.bytes_read::cpu06.data          6464                       # Number of bytes read from this memory
system.mem_ctrls.bytes_read::cpu07.inst           704                       # Number of bytes read from this memory
system.mem_ctrls.bytes_read::cpu07.data          6592                       # Number of bytes read from this memory
system.mem_ctrls.bytes_read::cpu08.inst          3648                       # Number of bytes read from this memory
system.mem_ctrls.bytes_read::cpu08.data          5760                       # Number of bytes read from this memory
system.mem_ctrls.bytes_read::cpu09.inst         18048                       # Number of bytes read from this memory
system.mem_ctrls.bytes_read::cpu09.data         11840                       # Number of bytes read from this memory
system.mem_ctrls.bytes_read::cpu10.inst           512                       # Number of bytes read from this memory
system.mem_ctrls.bytes_read::cpu10.data          6656                       # Number of bytes read from this memory
system.mem_ctrls.bytes_read::cpu11.inst           320                       # Number of bytes read from this memory
system.mem_ctrls.bytes_read::cpu11.data          6208                       # Number of bytes read from this memory
system.mem_ctrls.bytes_read::cpu12.inst          1344                       # Number of bytes read from this memory
system.mem_ctrls.bytes_read::cpu12.data          6400                       # Number of bytes read from this memory
system.mem_ctrls.bytes_read::cpu13.inst          2688                       # Number of bytes read from this memory
system.mem_ctrls.bytes_read::cpu13.data          6016                       # Number of bytes read from this memory
system.mem_ctrls.bytes_read::cpu14.inst          1280                       # Number of bytes read from this memory
system.mem_ctrls.bytes_read::cpu14.data          5312                       # Number of bytes read from this memory
system.mem_ctrls.bytes_read::cpu15.inst           896                       # Number of bytes read from this memory
system.mem_ctrls.bytes_read::cpu15.data          4672                       # Number of bytes read from this memory
system.mem_ctrls.bytes_read::total             622720                       # Number of bytes read from this memory
system.mem_ctrls.bytes_inst_read::cpu00.inst       107200                       # Number of instructions bytes read from this memory
system.mem_ctrls.bytes_inst_read::cpu01.inst        11648                       # Number of instructions bytes read from this memory
system.mem_ctrls.bytes_inst_read::cpu02.inst         3520                       # Number of instructions bytes read from this memory
system.mem_ctrls.bytes_inst_read::cpu03.inst         1728                       # Number of instructions bytes read from this memory
system.mem_ctrls.bytes_inst_read::cpu04.inst          256                       # Number of instructions bytes read from this memory
system.mem_ctrls.bytes_inst_read::cpu05.inst          576                       # Number of instructions bytes read from this memory
system.mem_ctrls.bytes_inst_read::cpu06.inst          448                       # Number of instructions bytes read from this memory
system.mem_ctrls.bytes_inst_read::cpu07.inst          704                       # Number of instructions bytes read from this memory
system.mem_ctrls.bytes_inst_read::cpu08.inst         3648                       # Number of instructions bytes read from this memory
system.mem_ctrls.bytes_inst_read::cpu09.inst        18048                       # Number of instructions bytes read from this memory
system.mem_ctrls.bytes_inst_read::cpu10.inst          512                       # Number of instructions bytes read from this memory
system.mem_ctrls.bytes_inst_read::cpu11.inst          320                       # Number of instructions bytes read from this memory
system.mem_ctrls.bytes_inst_read::cpu12.inst         1344                       # Number of instructions bytes read from this memory
system.mem_ctrls.bytes_inst_read::cpu13.inst         2688                       # Number of instructions bytes read from this memory
system.mem_ctrls.bytes_inst_read::cpu14.inst         1280                       # Number of instructions bytes read from this memory
system.mem_ctrls.bytes_inst_read::cpu15.inst          896                       # Number of instructions bytes read from this memory
system.mem_ctrls.bytes_inst_read::total        154816                       # Number of instructions bytes read from this memory
system.mem_ctrls.bytes_written::writebacks        72320                       # Number of bytes written to this memory
system.mem_ctrls.bytes_written::total           72320                       # Number of bytes written to this memory
system.mem_ctrls.num_reads::cpu00.inst           1675                       # Number of read requests responded to by this memory
system.mem_ctrls.num_reads::cpu00.data           5831                       # Number of read requests responded to by this memory
system.mem_ctrls.num_reads::cpu01.inst            182                       # Number of read requests responded to by this memory
system.mem_ctrls.num_reads::cpu01.data             96                       # Number of read requests responded to by this memory
system.mem_ctrls.num_reads::cpu02.inst             55                       # Number of read requests responded to by this memory
system.mem_ctrls.num_reads::cpu02.data             88                       # Number of read requests responded to by this memory
system.mem_ctrls.num_reads::cpu03.inst             27                       # Number of read requests responded to by this memory
system.mem_ctrls.num_reads::cpu03.data             89                       # Number of read requests responded to by this memory
system.mem_ctrls.num_reads::cpu04.inst              4                       # Number of read requests responded to by this memory
system.mem_ctrls.num_reads::cpu04.data             94                       # Number of read requests responded to by this memory
system.mem_ctrls.num_reads::cpu05.inst              9                       # Number of read requests responded to by this memory
system.mem_ctrls.num_reads::cpu05.data             83                       # Number of read requests responded to by this memory
system.mem_ctrls.num_reads::cpu06.inst              7                       # Number of read requests responded to by this memory
system.mem_ctrls.num_reads::cpu06.data            101                       # Number of read requests responded to by this memory
system.mem_ctrls.num_reads::cpu07.inst             11                       # Number of read requests responded to by this memory
system.mem_ctrls.num_reads::cpu07.data            103                       # Number of read requests responded to by this memory
system.mem_ctrls.num_reads::cpu08.inst             57                       # Number of read requests responded to by this memory
system.mem_ctrls.num_reads::cpu08.data             90                       # Number of read requests responded to by this memory
system.mem_ctrls.num_reads::cpu09.inst            282                       # Number of read requests responded to by this memory
system.mem_ctrls.num_reads::cpu09.data            185                       # Number of read requests responded to by this memory
system.mem_ctrls.num_reads::cpu10.inst              8                       # Number of read requests responded to by this memory
system.mem_ctrls.num_reads::cpu10.data            104                       # Number of read requests responded to by this memory
system.mem_ctrls.num_reads::cpu11.inst              5                       # Number of read requests responded to by this memory
system.mem_ctrls.num_reads::cpu11.data             97                       # Number of read requests responded to by this memory
system.mem_ctrls.num_reads::cpu12.inst             21                       # Number of read requests responded to by this memory
system.mem_ctrls.num_reads::cpu12.data            100                       # Number of read requests responded to by this memory
system.mem_ctrls.num_reads::cpu13.inst             42                       # Number of read requests responded to by this memory
system.mem_ctrls.num_reads::cpu13.data             94                       # Number of read requests responded to by this memory
system.mem_ctrls.num_reads::cpu14.inst             20                       # Number of read requests responded to by this memory
system.mem_ctrls.num_reads::cpu14.data             83                       # Number of read requests responded to by this memory
system.mem_ctrls.num_reads::cpu15.inst             14                       # Number of read requests responded to by this memory
system.mem_ctrls.num_reads::cpu15.data             73                       # Number of read requests responded to by this memory
system.mem_ctrls.num_reads::total                9730                       # Number of read requests responded to by this memory
system.mem_ctrls.num_writes::writebacks          1130                       # Number of write requests responded to by this memory
system.mem_ctrls.num_writes::total               1130                       # Number of write requests responded to by this memory
system.mem_ctrls.bw_read::cpu00.inst         81778207                       # Total read bandwidth from this memory (bytes/s)
system.mem_ctrls.bw_read::cpu00.data        284685805                       # Total read bandwidth from this memory (bytes/s)
system.mem_ctrls.bw_read::cpu01.inst          8885751                       # Total read bandwidth from this memory (bytes/s)
system.mem_ctrls.bw_read::cpu01.data          4686990                       # Total read bandwidth from this memory (bytes/s)
system.mem_ctrls.bw_read::cpu02.inst          2685255                       # Total read bandwidth from this memory (bytes/s)
system.mem_ctrls.bw_read::cpu02.data          4296407                       # Total read bandwidth from this memory (bytes/s)
system.mem_ctrls.bw_read::cpu03.inst          1318216                       # Total read bandwidth from this memory (bytes/s)
system.mem_ctrls.bw_read::cpu03.data          4345230                       # Total read bandwidth from this memory (bytes/s)
system.mem_ctrls.bw_read::cpu04.inst           195291                       # Total read bandwidth from this memory (bytes/s)
system.mem_ctrls.bw_read::cpu04.data          4589344                       # Total read bandwidth from this memory (bytes/s)
system.mem_ctrls.bw_read::cpu05.inst           439405                       # Total read bandwidth from this memory (bytes/s)
system.mem_ctrls.bw_read::cpu05.data          4052293                       # Total read bandwidth from this memory (bytes/s)
system.mem_ctrls.bw_read::cpu06.inst           341760                       # Total read bandwidth from this memory (bytes/s)
system.mem_ctrls.bw_read::cpu06.data          4931104                       # Total read bandwidth from this memory (bytes/s)
system.mem_ctrls.bw_read::cpu07.inst           537051                       # Total read bandwidth from this memory (bytes/s)
system.mem_ctrls.bw_read::cpu07.data          5028749                       # Total read bandwidth from this memory (bytes/s)
system.mem_ctrls.bw_read::cpu08.inst          2782900                       # Total read bandwidth from this memory (bytes/s)
system.mem_ctrls.bw_read::cpu08.data          4394053                       # Total read bandwidth from this memory (bytes/s)
system.mem_ctrls.bw_read::cpu09.inst         13768032                       # Total read bandwidth from this memory (bytes/s)
system.mem_ctrls.bw_read::cpu09.data          9032220                       # Total read bandwidth from this memory (bytes/s)
system.mem_ctrls.bw_read::cpu10.inst           390582                       # Total read bandwidth from this memory (bytes/s)
system.mem_ctrls.bw_read::cpu10.data          5077572                       # Total read bandwidth from this memory (bytes/s)
system.mem_ctrls.bw_read::cpu11.inst           244114                       # Total read bandwidth from this memory (bytes/s)
system.mem_ctrls.bw_read::cpu11.data          4735813                       # Total read bandwidth from this memory (bytes/s)
system.mem_ctrls.bw_read::cpu12.inst          1025279                       # Total read bandwidth from this memory (bytes/s)
system.mem_ctrls.bw_read::cpu12.data          4882281                       # Total read bandwidth from this memory (bytes/s)
system.mem_ctrls.bw_read::cpu13.inst          2050558                       # Total read bandwidth from this memory (bytes/s)
system.mem_ctrls.bw_read::cpu13.data          4589344                       # Total read bandwidth from this memory (bytes/s)
system.mem_ctrls.bw_read::cpu14.inst           976456                       # Total read bandwidth from this memory (bytes/s)
system.mem_ctrls.bw_read::cpu14.data          4052293                       # Total read bandwidth from this memory (bytes/s)
system.mem_ctrls.bw_read::cpu15.inst           683519                       # Total read bandwidth from this memory (bytes/s)
system.mem_ctrls.bw_read::cpu15.data          3564065                       # Total read bandwidth from this memory (bytes/s)
system.mem_ctrls.bw_read::total             475045941                       # Total read bandwidth from this memory (bytes/s)
system.mem_ctrls.bw_inst_read::cpu00.inst     81778207                       # Instruction read bandwidth from this memory (bytes/s)
system.mem_ctrls.bw_inst_read::cpu01.inst      8885751                       # Instruction read bandwidth from this memory (bytes/s)
system.mem_ctrls.bw_inst_read::cpu02.inst      2685255                       # Instruction read bandwidth from this memory (bytes/s)
system.mem_ctrls.bw_inst_read::cpu03.inst      1318216                       # Instruction read bandwidth from this memory (bytes/s)
system.mem_ctrls.bw_inst_read::cpu04.inst       195291                       # Instruction read bandwidth from this memory (bytes/s)
system.mem_ctrls.bw_inst_read::cpu05.inst       439405                       # Instruction read bandwidth from this memory (bytes/s)
system.mem_ctrls.bw_inst_read::cpu06.inst       341760                       # Instruction read bandwidth from this memory (bytes/s)
system.mem_ctrls.bw_inst_read::cpu07.inst       537051                       # Instruction read bandwidth from this memory (bytes/s)
system.mem_ctrls.bw_inst_read::cpu08.inst      2782900                       # Instruction read bandwidth from this memory (bytes/s)
system.mem_ctrls.bw_inst_read::cpu09.inst     13768032                       # Instruction read bandwidth from this memory (bytes/s)
system.mem_ctrls.bw_inst_read::cpu10.inst       390582                       # Instruction read bandwidth from this memory (bytes/s)
system.mem_ctrls.bw_inst_read::cpu11.inst       244114                       # Instruction read bandwidth from this memory (bytes/s)
system.mem_ctrls.bw_inst_read::cpu12.inst      1025279                       # Instruction read bandwidth from this memory (bytes/s)
system.mem_ctrls.bw_inst_read::cpu13.inst      2050558                       # Instruction read bandwidth from this memory (bytes/s)
system.mem_ctrls.bw_inst_read::cpu14.inst       976456                       # Instruction read bandwidth from this memory (bytes/s)
system.mem_ctrls.bw_inst_read::cpu15.inst       683519                       # Instruction read bandwidth from this memory (bytes/s)
system.mem_ctrls.bw_inst_read::total        118102377                       # Instruction read bandwidth from this memory (bytes/s)
system.mem_ctrls.bw_write::writebacks        55169775                       # Write bandwidth from this memory (bytes/s)
system.mem_ctrls.bw_write::total             55169775                       # Write bandwidth from this memory (bytes/s)
system.mem_ctrls.bw_total::writebacks        55169775                       # Total bandwidth to/from this memory (bytes/s)
system.mem_ctrls.bw_total::cpu00.inst        81778207                       # Total bandwidth to/from this memory (bytes/s)
system.mem_ctrls.bw_total::cpu00.data       284685805                       # Total bandwidth to/from this memory (bytes/s)
system.mem_ctrls.bw_total::cpu01.inst         8885751                       # Total bandwidth to/from this memory (bytes/s)
system.mem_ctrls.bw_total::cpu01.data         4686990                       # Total bandwidth to/from this memory (bytes/s)
system.mem_ctrls.bw_total::cpu02.inst         2685255                       # Total bandwidth to/from this memory (bytes/s)
system.mem_ctrls.bw_total::cpu02.data         4296407                       # Total bandwidth to/from this memory (bytes/s)
system.mem_ctrls.bw_total::cpu03.inst         1318216                       # Total bandwidth to/from this memory (bytes/s)
system.mem_ctrls.bw_total::cpu03.data         4345230                       # Total bandwidth to/from this memory (bytes/s)
system.mem_ctrls.bw_total::cpu04.inst          195291                       # Total bandwidth to/from this memory (bytes/s)
system.mem_ctrls.bw_total::cpu04.data         4589344                       # Total bandwidth to/from this memory (bytes/s)
system.mem_ctrls.bw_total::cpu05.inst          439405                       # Total bandwidth to/from this memory (bytes/s)
system.mem_ctrls.bw_total::cpu05.data         4052293                       # Total bandwidth to/from this memory (bytes/s)
system.mem_ctrls.bw_total::cpu06.inst          341760                       # Total bandwidth to/from this memory (bytes/s)
system.mem_ctrls.bw_total::cpu06.data         4931104                       # Total bandwidth to/from this memory (bytes/s)
system.mem_ctrls.bw_total::cpu07.inst          537051                       # Total bandwidth to/from this memory (bytes/s)
system.mem_ctrls.bw_total::cpu07.data         5028749                       # Total bandwidth to/from this memory (bytes/s)
system.mem_ctrls.bw_total::cpu08.inst         2782900                       # Total bandwidth to/from this memory (bytes/s)
system.mem_ctrls.bw_total::cpu08.data         4394053                       # Total bandwidth to/from this memory (bytes/s)
system.mem_ctrls.bw_total::cpu09.inst        13768032                       # Total bandwidth to/from this memory (bytes/s)
system.mem_ctrls.bw_total::cpu09.data         9032220                       # Total bandwidth to/from this memory (bytes/s)
system.mem_ctrls.bw_total::cpu10.inst          390582                       # Total bandwidth to/from this memory (bytes/s)
system.mem_ctrls.bw_total::cpu10.data         5077572                       # Total bandwidth to/from this memory (bytes/s)
system.mem_ctrls.bw_total::cpu11.inst          244114                       # Total bandwidth to/from this memory (bytes/s)
system.mem_ctrls.bw_total::cpu11.data         4735813                       # Total bandwidth to/from this memory (bytes/s)
system.mem_ctrls.bw_total::cpu12.inst         1025279                       # Total bandwidth to/from this memory (bytes/s)
system.mem_ctrls.bw_total::cpu12.data         4882281                       # Total bandwidth to/from this memory (bytes/s)
system.mem_ctrls.bw_total::cpu13.inst         2050558                       # Total bandwidth to/from this memory (bytes/s)
system.mem_ctrls.bw_total::cpu13.data         4589344                       # Total bandwidth to/from this memory (bytes/s)
system.mem_ctrls.bw_total::cpu14.inst          976456                       # Total bandwidth to/from this memory (bytes/s)
system.mem_ctrls.bw_total::cpu14.data         4052293                       # Total bandwidth to/from this memory (bytes/s)
system.mem_ctrls.bw_total::cpu15.inst          683519                       # Total bandwidth to/from this memory (bytes/s)
system.mem_ctrls.bw_total::cpu15.data         3564065                       # Total bandwidth to/from this memory (bytes/s)
system.mem_ctrls.bw_total::total            530215716                       # Total bandwidth to/from this memory (bytes/s)
system.cpu00.branchPred.lookups                160866                       # Number of BP lookups
system.cpu00.branchPred.condPredicted           94506                       # Number of conditional branches predicted
system.cpu00.branchPred.condIncorrect            6096                       # Number of conditional branches incorrect
system.cpu00.branchPred.BTBLookups             108616                       # Number of BTB lookups
system.cpu00.branchPred.BTBHits                 83289                       # Number of BTB hits
system.cpu00.branchPred.BTBCorrect                  0                       # Number of correct BTB predictions (this stat may not work properly.
system.cpu00.branchPred.BTBHitPct           76.682073                       # BTB Hit Percentage
system.cpu00.branchPred.usedRAS                 30124                       # Number of times the RAS was used to get a target.
system.cpu00.branchPred.RASInCorrect               77                       # Number of incorrect RAS predictions.
system.cpu00.branchPred.indirectLookups          3501                       # Number of indirect predictor lookups.
system.cpu00.branchPred.indirectHits             2846                       # Number of indirect target hits.
system.cpu00.branchPred.indirectMisses            655                       # Number of indirect misses.
system.cpu00.branchPredindirectMispredicted          209                       # Number of mispredicted indirect branches.
system.cpu_voltage_domain.voltage                   1                       # Voltage in Volts
system.cpu_clk_domain.clock                      1242                       # Clock period in ticks
system.cpu00.dtb.fetch_hits                         0                       # ITB hits
system.cpu00.dtb.fetch_misses                       0                       # ITB misses
system.cpu00.dtb.fetch_acv                          0                       # ITB acv
system.cpu00.dtb.fetch_accesses                     0                       # ITB accesses
system.cpu00.dtb.read_hits                     203254                       # DTB read hits
system.cpu00.dtb.read_misses                      696                       # DTB read misses
system.cpu00.dtb.read_acv                           0                       # DTB read access violations
system.cpu00.dtb.read_accesses                 203950                       # DTB read accesses
system.cpu00.dtb.write_hits                    132560                       # DTB write hits
system.cpu00.dtb.write_misses                    1073                       # DTB write misses
system.cpu00.dtb.write_acv                          0                       # DTB write access violations
system.cpu00.dtb.write_accesses                133633                       # DTB write accesses
system.cpu00.dtb.data_hits                     335814                       # DTB hits
system.cpu00.dtb.data_misses                     1769                       # DTB misses
system.cpu00.dtb.data_acv                           0                       # DTB access violations
system.cpu00.dtb.data_accesses                 337583                       # DTB accesses
system.cpu00.itb.fetch_hits                    175857                       # ITB hits
system.cpu00.itb.fetch_misses                     139                       # ITB misses
system.cpu00.itb.fetch_acv                          0                       # ITB acv
system.cpu00.itb.fetch_accesses                175996                       # ITB accesses
system.cpu00.itb.read_hits                          0                       # DTB read hits
system.cpu00.itb.read_misses                        0                       # DTB read misses
system.cpu00.itb.read_acv                           0                       # DTB read access violations
system.cpu00.itb.read_accesses                      0                       # DTB read accesses
system.cpu00.itb.write_hits                         0                       # DTB write hits
system.cpu00.itb.write_misses                       0                       # DTB write misses
system.cpu00.itb.write_acv                          0                       # DTB write access violations
system.cpu00.itb.write_accesses                     0                       # DTB write accesses
system.cpu00.itb.data_hits                          0                       # DTB hits
system.cpu00.itb.data_misses                        0                       # DTB misses
system.cpu00.itb.data_acv                           0                       # DTB access violations
system.cpu00.itb.data_accesses                      0                       # DTB accesses
system.cpu00.workload.num_syscalls               2722                       # Number of system calls
system.cpu00.numCycles                        1045428                       # number of cpu cycles simulated
system.cpu00.numWorkItemsStarted                    0                       # number of work items this cpu started
system.cpu00.numWorkItemsCompleted                  0                       # number of work items this cpu completed
system.cpu00.fetch.icacheStallCycles            79683                       # Number of cycles fetch is stalled on an Icache miss
system.cpu00.fetch.Insts                      1333892                       # Number of instructions fetch has processed
system.cpu00.fetch.Branches                    160866                       # Number of branches that fetch encountered
system.cpu00.fetch.predictedBranches           116259                       # Number of branches that fetch has predicted taken
system.cpu00.fetch.Cycles                      735179                       # Number of cycles fetch has run and was not squashing or blocked
system.cpu00.fetch.SquashCycles                 13613                       # Number of cycles fetch has spent squashing
system.cpu00.fetch.MiscStallCycles                535                       # Number of cycles fetch has spent waiting on interrupts, or bad addresses, or out of MSHRs
system.cpu00.fetch.NoActiveThreadStallCycles        48289                       # Number of stall cycles due to no active thread to fetch from
system.cpu00.fetch.PendingTrapStallCycles         5983                       # Number of stall cycles due to pending traps
system.cpu00.fetch.IcacheWaitRetryStallCycles          457                       # Number of stall cycles due to full MSHR
system.cpu00.fetch.CacheLines                  175857                       # Number of cache lines fetched
system.cpu00.fetch.IcacheSquashes                2635                       # Number of outstanding Icache misses that were squashed
system.cpu00.fetch.rateDist::samples           876932                       # Number of instructions fetched each cycle (Total)
system.cpu00.fetch.rateDist::mean            1.521089                       # Number of instructions fetched each cycle (Total)
system.cpu00.fetch.rateDist::stdev           2.731168                       # Number of instructions fetched each cycle (Total)
system.cpu00.fetch.rateDist::underflows             0      0.00%      0.00% # Number of instructions fetched each cycle (Total)
system.cpu00.fetch.rateDist::0                 627688     71.58%     71.58% # Number of instructions fetched each cycle (Total)
system.cpu00.fetch.rateDist::1                  17867      2.04%     73.62% # Number of instructions fetched each cycle (Total)
system.cpu00.fetch.rateDist::2                  19763      2.25%     75.87% # Number of instructions fetched each cycle (Total)
system.cpu00.fetch.rateDist::3                  22741      2.59%     78.46% # Number of instructions fetched each cycle (Total)
system.cpu00.fetch.rateDist::4                  47658      5.43%     83.90% # Number of instructions fetched each cycle (Total)
system.cpu00.fetch.rateDist::5                  16706      1.91%     85.80% # Number of instructions fetched each cycle (Total)
system.cpu00.fetch.rateDist::6                  24634      2.81%     88.61% # Number of instructions fetched each cycle (Total)
system.cpu00.fetch.rateDist::7                  12690      1.45%     90.06% # Number of instructions fetched each cycle (Total)
system.cpu00.fetch.rateDist::8                  87185      9.94%    100.00% # Number of instructions fetched each cycle (Total)
system.cpu00.fetch.rateDist::overflows              0      0.00%    100.00% # Number of instructions fetched each cycle (Total)
system.cpu00.fetch.rateDist::min_value              0                       # Number of instructions fetched each cycle (Total)
system.cpu00.fetch.rateDist::max_value              8                       # Number of instructions fetched each cycle (Total)
system.cpu00.fetch.rateDist::total             876932                       # Number of instructions fetched each cycle (Total)
system.cpu00.fetch.branchRate                0.153876                       # Number of branch fetches per cycle
system.cpu00.fetch.rate                      1.275929                       # Number of inst fetches per cycle
system.cpu00.decode.IdleCycles                  88163                       # Number of cycles decode is idle
system.cpu00.decode.BlockedCycles              543879                       # Number of cycles decode is blocked
system.cpu00.decode.RunCycles                  157935                       # Number of cycles decode is running
system.cpu00.decode.UnblockCycles               33845                       # Number of cycles decode is unblocking
system.cpu00.decode.SquashCycles                 4821                       # Number of cycles decode is squashing
system.cpu00.decode.BranchResolved              30332                       # Number of times decode resolved a branch
system.cpu00.decode.BranchMispred                2040                       # Number of times decode detected a branch misprediction
system.cpu00.decode.DecodedInsts              1263065                       # Number of instructions handled by decode
system.cpu00.decode.SquashedInsts                8551                       # Number of squashed instructions handled by decode
system.cpu00.rename.SquashCycles                 4821                       # Number of cycles rename is squashing
system.cpu00.rename.IdleCycles                 104666                       # Number of cycles rename is idle
system.cpu00.rename.BlockCycles                 83584                       # Number of cycles rename is blocking
system.cpu00.rename.serializeStallCycles       222464                       # count of cycles rename stalled for serializing inst
system.cpu00.rename.RunCycles                  175382                       # Number of cycles rename is running
system.cpu00.rename.UnblockCycles              237726                       # Number of cycles rename is unblocking
system.cpu00.rename.RenamedInsts              1242060                       # Number of instructions processed by rename
system.cpu00.rename.ROBFullEvents                2588                       # Number of times rename has blocked due to ROB full
system.cpu00.rename.IQFullEvents                22053                       # Number of times rename has blocked due to IQ full
system.cpu00.rename.LQFullEvents                 1872                       # Number of times rename has blocked due to LQ full
system.cpu00.rename.SQFullEvents               202736                       # Number of times rename has blocked due to SQ full
system.cpu00.rename.RenamedOperands            843856                       # Number of destination operands rename has renamed
system.cpu00.rename.RenameLookups             1518544                       # Number of register rename lookups that rename has made
system.cpu00.rename.int_rename_lookups        1360398                       # Number of integer rename lookups
system.cpu00.rename.fp_rename_lookups          155908                       # Number of floating rename lookups
system.cpu00.rename.CommittedMaps              748265                       # Number of HB maps that are committed
system.cpu00.rename.UndoneMaps                  95591                       # Number of HB maps that are undone due to squashing
system.cpu00.rename.serializingInsts             4312                       # count of serializing insts renamed
system.cpu00.rename.tempSerializingInsts         2010                       # count of temporary serializing insts renamed
system.cpu00.rename.skidInsts                  149334                       # count of insts added to the skid buffer
system.cpu00.memDep0.insertedLoads             203179                       # Number of loads inserted to the mem dependence unit.
system.cpu00.memDep0.insertedStores            140831                       # Number of stores inserted to the mem dependence unit.
system.cpu00.memDep0.conflictingLoads           34731                       # Number of conflicting loads.
system.cpu00.memDep0.conflictingStores          13906                       # Number of conflicting stores.
system.cpu00.iq.iqInstsAdded                  1081930                       # Number of instructions added to the IQ (excludes non-spec)
system.cpu00.iq.iqNonSpecInstsAdded              3496                       # Number of non-speculative instructions added to the IQ
system.cpu00.iq.iqInstsIssued                 1063777                       # Number of instructions issued
system.cpu00.iq.iqSquashedInstsIssued            1826                       # Number of squashed instructions issued
system.cpu00.iq.iqSquashedInstsExamined        109261                       # Number of squashed instructions iterated over during squash; mainly for profiling
system.cpu00.iq.iqSquashedOperandsExamined        53992                       # Number of squashed operands that are examined and possibly removed from graph
system.cpu00.iq.iqSquashedNonSpecRemoved          493                       # Number of squashed non-spec instructions that were removed
system.cpu00.iq.issued_per_cycle::samples       876932                       # Number of insts issued each cycle
system.cpu00.iq.issued_per_cycle::mean       1.213067                       # Number of insts issued each cycle
system.cpu00.iq.issued_per_cycle::stdev      1.964716                       # Number of insts issued each cycle
system.cpu00.iq.issued_per_cycle::underflows            0      0.00%      0.00% # Number of insts issued each cycle
system.cpu00.iq.issued_per_cycle::0            548816     62.58%     62.58% # Number of insts issued each cycle
system.cpu00.iq.issued_per_cycle::1             76063      8.67%     71.26% # Number of insts issued each cycle
system.cpu00.iq.issued_per_cycle::2             67814      7.73%     78.99% # Number of insts issued each cycle
system.cpu00.iq.issued_per_cycle::3             52396      5.97%     84.97% # Number of insts issued each cycle
system.cpu00.iq.issued_per_cycle::4             46759      5.33%     90.30% # Number of insts issued each cycle
system.cpu00.iq.issued_per_cycle::5             31529      3.60%     93.89% # Number of insts issued each cycle
system.cpu00.iq.issued_per_cycle::6             33028      3.77%     97.66% # Number of insts issued each cycle
system.cpu00.iq.issued_per_cycle::7             12167      1.39%     99.05% # Number of insts issued each cycle
system.cpu00.iq.issued_per_cycle::8              8360      0.95%    100.00% # Number of insts issued each cycle
system.cpu00.iq.issued_per_cycle::overflows            0      0.00%    100.00% # Number of insts issued each cycle
system.cpu00.iq.issued_per_cycle::min_value            0                       # Number of insts issued each cycle
system.cpu00.iq.issued_per_cycle::max_value            8                       # Number of insts issued each cycle
system.cpu00.iq.issued_per_cycle::total        876932                       # Number of insts issued each cycle
system.cpu00.iq.fu_full::No_OpClass                 0      0.00%      0.00% # attempts to use FU when none available
system.cpu00.iq.fu_full::IntAlu                  5204     16.13%     16.13% # attempts to use FU when none available
system.cpu00.iq.fu_full::IntMult                 4097     12.70%     28.82% # attempts to use FU when none available
system.cpu00.iq.fu_full::IntDiv                     0      0.00%     28.82% # attempts to use FU when none available
system.cpu00.iq.fu_full::FloatAdd                  77      0.24%     29.06% # attempts to use FU when none available
system.cpu00.iq.fu_full::FloatCmp                   0      0.00%     29.06% # attempts to use FU when none available
system.cpu00.iq.fu_full::FloatCvt                   0      0.00%     29.06% # attempts to use FU when none available
system.cpu00.iq.fu_full::FloatMult               5890     18.25%     47.31% # attempts to use FU when none available
system.cpu00.iq.fu_full::FloatDiv                   0      0.00%     47.31% # attempts to use FU when none available
system.cpu00.iq.fu_full::FloatSqrt                  0      0.00%     47.31% # attempts to use FU when none available
system.cpu00.iq.fu_full::SimdAdd                    0      0.00%     47.31% # attempts to use FU when none available
system.cpu00.iq.fu_full::SimdAddAcc                 0      0.00%     47.31% # attempts to use FU when none available
system.cpu00.iq.fu_full::SimdAlu                    0      0.00%     47.31% # attempts to use FU when none available
system.cpu00.iq.fu_full::SimdCmp                    0      0.00%     47.31% # attempts to use FU when none available
system.cpu00.iq.fu_full::SimdCvt                    0      0.00%     47.31% # attempts to use FU when none available
system.cpu00.iq.fu_full::SimdMisc                   0      0.00%     47.31% # attempts to use FU when none available
system.cpu00.iq.fu_full::SimdMult                   0      0.00%     47.31% # attempts to use FU when none available
system.cpu00.iq.fu_full::SimdMultAcc                0      0.00%     47.31% # attempts to use FU when none available
system.cpu00.iq.fu_full::SimdShift                  0      0.00%     47.31% # attempts to use FU when none available
system.cpu00.iq.fu_full::SimdShiftAcc               0      0.00%     47.31% # attempts to use FU when none available
system.cpu00.iq.fu_full::SimdSqrt                   0      0.00%     47.31% # attempts to use FU when none available
system.cpu00.iq.fu_full::SimdFloatAdd               0      0.00%     47.31% # attempts to use FU when none available
system.cpu00.iq.fu_full::SimdFloatAlu               0      0.00%     47.31% # attempts to use FU when none available
system.cpu00.iq.fu_full::SimdFloatCmp               0      0.00%     47.31% # attempts to use FU when none available
system.cpu00.iq.fu_full::SimdFloatCvt               0      0.00%     47.31% # attempts to use FU when none available
system.cpu00.iq.fu_full::SimdFloatDiv               0      0.00%     47.31% # attempts to use FU when none available
system.cpu00.iq.fu_full::SimdFloatMisc              0      0.00%     47.31% # attempts to use FU when none available
system.cpu00.iq.fu_full::SimdFloatMult              0      0.00%     47.31% # attempts to use FU when none available
system.cpu00.iq.fu_full::SimdFloatMultAcc            0      0.00%     47.31% # attempts to use FU when none available
system.cpu00.iq.fu_full::SimdFloatSqrt              0      0.00%     47.31% # attempts to use FU when none available
system.cpu00.iq.fu_full::MemRead                10344     32.05%     79.37% # attempts to use FU when none available
system.cpu00.iq.fu_full::MemWrite                6659     20.63%    100.00% # attempts to use FU when none available
system.cpu00.iq.fu_full::IprAccess                  0      0.00%    100.00% # attempts to use FU when none available
system.cpu00.iq.fu_full::InstPrefetch               0      0.00%    100.00% # attempts to use FU when none available
system.cpu00.iq.FU_type_0::No_OpClass               2      0.00%      0.00% # Type of FU issued
system.cpu00.iq.FU_type_0::IntAlu              635083     59.70%     59.70% # Type of FU issued
system.cpu00.iq.FU_type_0::IntMult              12782      1.20%     60.90% # Type of FU issued
system.cpu00.iq.FU_type_0::IntDiv                   0      0.00%     60.90% # Type of FU issued
system.cpu00.iq.FU_type_0::FloatAdd             35773      3.36%     64.27% # Type of FU issued
system.cpu00.iq.FU_type_0::FloatCmp                 8      0.00%     64.27% # Type of FU issued
system.cpu00.iq.FU_type_0::FloatCvt                 0      0.00%     64.27% # Type of FU issued
system.cpu00.iq.FU_type_0::FloatMult            37109      3.49%     67.75% # Type of FU issued
system.cpu00.iq.FU_type_0::FloatDiv                13      0.00%     67.76% # Type of FU issued
system.cpu00.iq.FU_type_0::FloatSqrt                0      0.00%     67.76% # Type of FU issued
system.cpu00.iq.FU_type_0::SimdAdd                  0      0.00%     67.76% # Type of FU issued
system.cpu00.iq.FU_type_0::SimdAddAcc               0      0.00%     67.76% # Type of FU issued
system.cpu00.iq.FU_type_0::SimdAlu                  0      0.00%     67.76% # Type of FU issued
system.cpu00.iq.FU_type_0::SimdCmp                  0      0.00%     67.76% # Type of FU issued
system.cpu00.iq.FU_type_0::SimdCvt                  0      0.00%     67.76% # Type of FU issued
system.cpu00.iq.FU_type_0::SimdMisc                 0      0.00%     67.76% # Type of FU issued
system.cpu00.iq.FU_type_0::SimdMult                 0      0.00%     67.76% # Type of FU issued
system.cpu00.iq.FU_type_0::SimdMultAcc              0      0.00%     67.76% # Type of FU issued
system.cpu00.iq.FU_type_0::SimdShift                0      0.00%     67.76% # Type of FU issued
system.cpu00.iq.FU_type_0::SimdShiftAcc             0      0.00%     67.76% # Type of FU issued
system.cpu00.iq.FU_type_0::SimdSqrt                 0      0.00%     67.76% # Type of FU issued
system.cpu00.iq.FU_type_0::SimdFloatAdd             0      0.00%     67.76% # Type of FU issued
system.cpu00.iq.FU_type_0::SimdFloatAlu             0      0.00%     67.76% # Type of FU issued
system.cpu00.iq.FU_type_0::SimdFloatCmp             0      0.00%     67.76% # Type of FU issued
system.cpu00.iq.FU_type_0::SimdFloatCvt             0      0.00%     67.76% # Type of FU issued
system.cpu00.iq.FU_type_0::SimdFloatDiv             0      0.00%     67.76% # Type of FU issued
system.cpu00.iq.FU_type_0::SimdFloatMisc            0      0.00%     67.76% # Type of FU issued
system.cpu00.iq.FU_type_0::SimdFloatMult            0      0.00%     67.76% # Type of FU issued
system.cpu00.iq.FU_type_0::SimdFloatMultAcc            0      0.00%     67.76% # Type of FU issued
system.cpu00.iq.FU_type_0::SimdFloatSqrt            0      0.00%     67.76% # Type of FU issued
system.cpu00.iq.FU_type_0::MemRead             207538     19.51%     87.27% # Type of FU issued
system.cpu00.iq.FU_type_0::MemWrite            135469     12.73%    100.00% # Type of FU issued
system.cpu00.iq.FU_type_0::IprAccess                0      0.00%    100.00% # Type of FU issued
system.cpu00.iq.FU_type_0::InstPrefetch             0      0.00%    100.00% # Type of FU issued
system.cpu00.iq.FU_type_0::total              1063777                       # Type of FU issued
system.cpu00.iq.rate                         1.017552                       # Inst issue rate
system.cpu00.iq.fu_busy_cnt                     32271                       # FU busy when requested
system.cpu00.iq.fu_busy_rate                 0.030336                       # FU busy rate (busy events/executed inst)
system.cpu00.iq.int_inst_queue_reads          2795178                       # Number of integer instruction queue reads
system.cpu00.iq.int_inst_queue_writes         1071793                       # Number of integer instruction queue writes
system.cpu00.iq.int_inst_queue_wakeup_accesses       925532                       # Number of integer instruction queue wakeup accesses
system.cpu00.iq.fp_inst_queue_reads            243405                       # Number of floating instruction queue reads
system.cpu00.iq.fp_inst_queue_writes           123333                       # Number of floating instruction queue writes
system.cpu00.iq.fp_inst_queue_wakeup_accesses       116981                       # Number of floating instruction queue wakeup accesses
system.cpu00.iq.int_alu_accesses               971015                       # Number of integer alu accesses
system.cpu00.iq.fp_alu_accesses                125031                       # Number of floating point alu accesses
system.cpu00.iew.lsq.thread0.forwLoads          22218                       # Number of loads that had data forwarded from stores
system.cpu00.iew.lsq.thread0.invAddrLoads            0                       # Number of loads ignored due to an invalid address
system.cpu00.iew.lsq.thread0.squashedLoads        20104                       # Number of loads squashed
system.cpu00.iew.lsq.thread0.ignoredResponses           62                       # Number of memory responses ignored because the instruction is squashed
system.cpu00.iew.lsq.thread0.memOrderViolation          447                       # Number of memory ordering violations
system.cpu00.iew.lsq.thread0.squashedStores        17255                       # Number of stores squashed
system.cpu00.iew.lsq.thread0.invAddrSwpfs            0                       # Number of software prefetches ignored due to an invalid address
system.cpu00.iew.lsq.thread0.blockedLoads            0                       # Number of blocked loads due to partial load-store forwarding
system.cpu00.iew.lsq.thread0.rescheduledLoads          214                       # Number of loads that were rescheduled
system.cpu00.iew.lsq.thread0.cacheBlocked         8915                       # Number of times an access to memory failed due to the cache being blocked
system.cpu00.iew.iewIdleCycles                      0                       # Number of cycles IEW is idle
system.cpu00.iew.iewSquashCycles                 4821                       # Number of cycles IEW is squashing
system.cpu00.iew.iewBlockCycles                 22879                       # Number of cycles IEW is blocking
system.cpu00.iew.iewUnblockCycles               53126                       # Number of cycles IEW is unblocking
system.cpu00.iew.iewDispatchedInsts           1213167                       # Number of instructions dispatched to IQ
system.cpu00.iew.iewDispSquashedInsts            1722                       # Number of squashed instructions skipped by dispatch
system.cpu00.iew.iewDispLoadInsts              203179                       # Number of dispatched load instructions
system.cpu00.iew.iewDispStoreInsts             140831                       # Number of dispatched store instructions
system.cpu00.iew.iewDispNonSpecInsts             1906                       # Number of dispatched non-speculative instructions
system.cpu00.iew.iewIQFullEvents                  134                       # Number of times the IQ has become full, causing a stall
system.cpu00.iew.iewLSQFullEvents               52904                       # Number of times the LSQ has become full, causing a stall
system.cpu00.iew.memOrderViolationEvents          447                       # Number of memory order violations
system.cpu00.iew.predictedTakenIncorrect         1626                       # Number of branches that were predicted taken incorrectly
system.cpu00.iew.predictedNotTakenIncorrect         3236                       # Number of branches that were predicted not taken incorrectly
system.cpu00.iew.branchMispredicts               4862                       # Number of branch mispredicts detected at execute
system.cpu00.iew.iewExecutedInsts             1055465                       # Number of executed instructions
system.cpu00.iew.iewExecLoadInsts              203962                       # Number of load instructions executed
system.cpu00.iew.iewExecSquashedInsts            8312                       # Number of squashed instructions skipped in execute
system.cpu00.iew.exec_swp                           0                       # number of swp insts executed
system.cpu00.iew.exec_nop                      127741                       # number of nop insts executed
system.cpu00.iew.exec_refs                     337599                       # number of memory reference insts executed
system.cpu00.iew.exec_branches                 137033                       # Number of branches executed
system.cpu00.iew.exec_stores                   133637                       # Number of stores executed
system.cpu00.iew.exec_rate                   1.009601                       # Inst execution rate
system.cpu00.iew.wb_sent                      1046317                       # cumulative count of insts sent to commit
system.cpu00.iew.wb_count                     1042513                       # cumulative count of insts written-back
system.cpu00.iew.wb_producers                  610333                       # num instructions producing a value
system.cpu00.iew.wb_consumers                  850745                       # num instructions consuming a value
system.cpu00.iew.wb_rate                     0.997212                       # insts written-back per cycle
system.cpu00.iew.wb_fanout                   0.717410                       # average fanout of values written-back
system.cpu00.commit.commitSquashedInsts        114657                       # The number of squashed insts skipped by commit
system.cpu00.commit.commitNonSpecStalls          3003                       # The number of times commit has been forced to stall to communicate backwards
system.cpu00.commit.branchMispredicts            4111                       # The number of times a branch was mispredicted
system.cpu00.commit.committed_per_cycle::samples       810955                       # Number of insts commited each cycle
system.cpu00.commit.committed_per_cycle::mean     1.347901                       # Number of insts commited each cycle
system.cpu00.commit.committed_per_cycle::stdev     2.411446                       # Number of insts commited each cycle
system.cpu00.commit.committed_per_cycle::underflows            0      0.00%      0.00% # Number of insts commited each cycle
system.cpu00.commit.committed_per_cycle::0       534678     65.93%     65.93% # Number of insts commited each cycle
system.cpu00.commit.committed_per_cycle::1        58683      7.24%     73.17% # Number of insts commited each cycle
system.cpu00.commit.committed_per_cycle::2        53938      6.65%     79.82% # Number of insts commited each cycle
system.cpu00.commit.committed_per_cycle::3        31295      3.86%     83.68% # Number of insts commited each cycle
system.cpu00.commit.committed_per_cycle::4        37268      4.60%     88.27% # Number of insts commited each cycle
system.cpu00.commit.committed_per_cycle::5        13574      1.67%     89.95% # Number of insts commited each cycle
system.cpu00.commit.committed_per_cycle::6        13475      1.66%     91.61% # Number of insts commited each cycle
system.cpu00.commit.committed_per_cycle::7         9501      1.17%     92.78% # Number of insts commited each cycle
system.cpu00.commit.committed_per_cycle::8        58543      7.22%    100.00% # Number of insts commited each cycle
system.cpu00.commit.committed_per_cycle::overflows            0      0.00%    100.00% # Number of insts commited each cycle
system.cpu00.commit.committed_per_cycle::min_value            0                       # Number of insts commited each cycle
system.cpu00.commit.committed_per_cycle::max_value            8                       # Number of insts commited each cycle
system.cpu00.commit.committed_per_cycle::total       810955                       # Number of insts commited each cycle
system.cpu00.commit.committedInsts            1093087                       # Number of instructions committed
system.cpu00.commit.committedOps              1093087                       # Number of ops (including micro ops) committed
system.cpu00.commit.swp_count                       0                       # Number of s/w prefetches committed
system.cpu00.commit.refs                       306651                       # Number of memory references committed
system.cpu00.commit.loads                      183075                       # Number of loads committed
system.cpu00.commit.membars                      1367                       # Number of memory barriers committed
system.cpu00.commit.branches                   125642                       # Number of branches committed
system.cpu00.commit.fp_insts                   116013                       # Number of committed floating point instructions.
system.cpu00.commit.int_insts                  897991                       # Number of committed integer instructions.
system.cpu00.commit.function_calls              25262                       # Number of function calls committed.
system.cpu00.commit.op_class_0::No_OpClass       116924     10.70%     10.70% # Class of committed instruction
system.cpu00.commit.op_class_0::IntAlu         583006     53.34%     64.03% # Class of committed instruction
system.cpu00.commit.op_class_0::IntMult         12693      1.16%     65.19% # Class of committed instruction
system.cpu00.commit.op_class_0::IntDiv              0      0.00%     65.19% # Class of committed instruction
system.cpu00.commit.op_class_0::FloatAdd        35475      3.25%     68.44% # Class of committed instruction
system.cpu00.commit.op_class_0::FloatCmp            8      0.00%     68.44% # Class of committed instruction
system.cpu00.commit.op_class_0::FloatCvt            0      0.00%     68.44% # Class of committed instruction
system.cpu00.commit.op_class_0::FloatMult        36935      3.38%     71.82% # Class of committed instruction
system.cpu00.commit.op_class_0::FloatDiv           12      0.00%     71.82% # Class of committed instruction
system.cpu00.commit.op_class_0::FloatSqrt            0      0.00%     71.82% # Class of committed instruction
system.cpu00.commit.op_class_0::SimdAdd             0      0.00%     71.82% # Class of committed instruction
system.cpu00.commit.op_class_0::SimdAddAcc            0      0.00%     71.82% # Class of committed instruction
system.cpu00.commit.op_class_0::SimdAlu             0      0.00%     71.82% # Class of committed instruction
system.cpu00.commit.op_class_0::SimdCmp             0      0.00%     71.82% # Class of committed instruction
system.cpu00.commit.op_class_0::SimdCvt             0      0.00%     71.82% # Class of committed instruction
system.cpu00.commit.op_class_0::SimdMisc            0      0.00%     71.82% # Class of committed instruction
system.cpu00.commit.op_class_0::SimdMult            0      0.00%     71.82% # Class of committed instruction
system.cpu00.commit.op_class_0::SimdMultAcc            0      0.00%     71.82% # Class of committed instruction
system.cpu00.commit.op_class_0::SimdShift            0      0.00%     71.82% # Class of committed instruction
system.cpu00.commit.op_class_0::SimdShiftAcc            0      0.00%     71.82% # Class of committed instruction
system.cpu00.commit.op_class_0::SimdSqrt            0      0.00%     71.82% # Class of committed instruction
system.cpu00.commit.op_class_0::SimdFloatAdd            0      0.00%     71.82% # Class of committed instruction
system.cpu00.commit.op_class_0::SimdFloatAlu            0      0.00%     71.82% # Class of committed instruction
system.cpu00.commit.op_class_0::SimdFloatCmp            0      0.00%     71.82% # Class of committed instruction
system.cpu00.commit.op_class_0::SimdFloatCvt            0      0.00%     71.82% # Class of committed instruction
system.cpu00.commit.op_class_0::SimdFloatDiv            0      0.00%     71.82% # Class of committed instruction
system.cpu00.commit.op_class_0::SimdFloatMisc            0      0.00%     71.82% # Class of committed instruction
system.cpu00.commit.op_class_0::SimdFloatMult            0      0.00%     71.82% # Class of committed instruction
system.cpu00.commit.op_class_0::SimdFloatMultAcc            0      0.00%     71.82% # Class of committed instruction
system.cpu00.commit.op_class_0::SimdFloatSqrt            0      0.00%     71.82% # Class of committed instruction
system.cpu00.commit.op_class_0::MemRead        184442     16.87%     88.69% # Class of committed instruction
system.cpu00.commit.op_class_0::MemWrite       123592     11.31%    100.00% # Class of committed instruction
system.cpu00.commit.op_class_0::IprAccess            0      0.00%    100.00% # Class of committed instruction
system.cpu00.commit.op_class_0::InstPrefetch            0      0.00%    100.00% # Class of committed instruction
system.cpu00.commit.op_class_0::total         1093087                       # Class of committed instruction
system.cpu00.commit.bw_lim_events               58543                       # number cycles where commit BW limit reached
system.cpu00.rob.rob_reads                    1956022                       # The number of ROB reads
system.cpu00.rob.rob_writes                   2433319                       # The number of ROB writes
system.cpu00.timesIdled                          1253                       # Number of times that the entire CPU went into an idle state and unscheduled itself
system.cpu00.idleCycles                        168496                       # Total number of cycles that the CPU has spent unscheduled due to idling
system.cpu00.quiesceCycles                      10018                       # Total number of cycles that CPU has spent quiesced or waiting for an interrupt
system.cpu00.committedInsts                    976165                       # Number of Instructions Simulated
system.cpu00.committedOps                      976165                       # Number of Ops (including micro ops) Simulated
system.cpu00.cpi                             1.070954                       # CPI: Cycles Per Instruction
system.cpu00.cpi_total                       1.070954                       # CPI: Total CPI of All Threads
system.cpu00.ipc                             0.933747                       # IPC: Instructions Per Cycle
system.cpu00.ipc_total                       0.933747                       # IPC: Total IPC of All Threads
system.cpu00.int_regfile_reads                1284064                       # number of integer regfile reads
system.cpu00.int_regfile_writes                696838                       # number of integer regfile writes
system.cpu00.fp_regfile_reads                  151839                       # number of floating regfile reads
system.cpu00.fp_regfile_writes                 102971                       # number of floating regfile writes
system.cpu00.misc_regfile_reads                  5944                       # number of misc regfile reads
system.cpu00.misc_regfile_writes                 2616                       # number of misc regfile writes
system.cpu00.dcache.tags.replacements           11575                       # number of replacements
system.cpu00.dcache.tags.tagsinuse         124.550647                       # Cycle average of tags in use
system.cpu00.dcache.tags.total_refs            254431                       # Total number of references to valid blocks.
system.cpu00.dcache.tags.sampled_refs           11698                       # Sample count of references to valid blocks.
system.cpu00.dcache.tags.avg_refs           21.749957                       # Average number of references to valid blocks.
system.cpu00.dcache.tags.warmup_cycle        86323968                       # Cycle when the warmup percentage was hit.
system.cpu00.dcache.tags.occ_blocks::cpu00.data   124.550647                       # Average occupied blocks per requestor
system.cpu00.dcache.tags.occ_percent::cpu00.data     0.973052                       # Average percentage of cache occupancy
system.cpu00.dcache.tags.occ_percent::total     0.973052                       # Average percentage of cache occupancy
system.cpu00.dcache.tags.occ_task_id_blocks::1024          123                       # Occupied blocks per task id
system.cpu00.dcache.tags.age_task_id_blocks_1024::1           93                       # Occupied blocks per task id
system.cpu00.dcache.tags.age_task_id_blocks_1024::2           30                       # Occupied blocks per task id
system.cpu00.dcache.tags.occ_task_id_percent::1024     0.960938                       # Percentage of cache occupancy per task id
system.cpu00.dcache.tags.tag_accesses         1201971                       # Number of tag accesses
system.cpu00.dcache.tags.data_accesses        1201971                       # Number of data accesses
system.cpu00.dcache.ReadReq_hits::cpu00.data       163447                       # number of ReadReq hits
system.cpu00.dcache.ReadReq_hits::total        163447                       # number of ReadReq hits
system.cpu00.dcache.WriteReq_hits::cpu00.data        89094                       # number of WriteReq hits
system.cpu00.dcache.WriteReq_hits::total        89094                       # number of WriteReq hits
system.cpu00.dcache.LoadLockedReq_hits::cpu00.data         1074                       # number of LoadLockedReq hits
system.cpu00.dcache.LoadLockedReq_hits::total         1074                       # number of LoadLockedReq hits
system.cpu00.dcache.StoreCondReq_hits::cpu00.data         1193                       # number of StoreCondReq hits
system.cpu00.dcache.StoreCondReq_hits::total         1193                       # number of StoreCondReq hits
system.cpu00.dcache.demand_hits::cpu00.data       252541                       # number of demand (read+write) hits
system.cpu00.dcache.demand_hits::total         252541                       # number of demand (read+write) hits
system.cpu00.dcache.overall_hits::cpu00.data       252541                       # number of overall hits
system.cpu00.dcache.overall_hits::total        252541                       # number of overall hits
system.cpu00.dcache.ReadReq_misses::cpu00.data         9015                       # number of ReadReq misses
system.cpu00.dcache.ReadReq_misses::total         9015                       # number of ReadReq misses
system.cpu00.dcache.WriteReq_misses::cpu00.data        33196                       # number of WriteReq misses
system.cpu00.dcache.WriteReq_misses::total        33196                       # number of WriteReq misses
system.cpu00.dcache.LoadLockedReq_misses::cpu00.data          293                       # number of LoadLockedReq misses
system.cpu00.dcache.LoadLockedReq_misses::total          293                       # number of LoadLockedReq misses
system.cpu00.dcache.StoreCondReq_misses::cpu00.data           90                       # number of StoreCondReq misses
system.cpu00.dcache.StoreCondReq_misses::total           90                       # number of StoreCondReq misses
system.cpu00.dcache.demand_misses::cpu00.data        42211                       # number of demand (read+write) misses
system.cpu00.dcache.demand_misses::total        42211                       # number of demand (read+write) misses
system.cpu00.dcache.overall_misses::cpu00.data        42211                       # number of overall misses
system.cpu00.dcache.overall_misses::total        42211                       # number of overall misses
system.cpu00.dcache.ReadReq_miss_latency::cpu00.data    391643586                       # number of ReadReq miss cycles
system.cpu00.dcache.ReadReq_miss_latency::total    391643586                       # number of ReadReq miss cycles
system.cpu00.dcache.WriteReq_miss_latency::cpu00.data   5413127448                       # number of WriteReq miss cycles
system.cpu00.dcache.WriteReq_miss_latency::total   5413127448                       # number of WriteReq miss cycles
system.cpu00.dcache.LoadLockedReq_miss_latency::cpu00.data      3296268                       # number of LoadLockedReq miss cycles
system.cpu00.dcache.LoadLockedReq_miss_latency::total      3296268                       # number of LoadLockedReq miss cycles
system.cpu00.dcache.StoreCondReq_miss_latency::cpu00.data      1033344                       # number of StoreCondReq miss cycles
system.cpu00.dcache.StoreCondReq_miss_latency::total      1033344                       # number of StoreCondReq miss cycles
system.cpu00.dcache.StoreCondFailReq_miss_latency::cpu00.data       308016                       # number of StoreCondFailReq miss cycles
system.cpu00.dcache.StoreCondFailReq_miss_latency::total       308016                       # number of StoreCondFailReq miss cycles
system.cpu00.dcache.demand_miss_latency::cpu00.data   5804771034                       # number of demand (read+write) miss cycles
system.cpu00.dcache.demand_miss_latency::total   5804771034                       # number of demand (read+write) miss cycles
system.cpu00.dcache.overall_miss_latency::cpu00.data   5804771034                       # number of overall miss cycles
system.cpu00.dcache.overall_miss_latency::total   5804771034                       # number of overall miss cycles
system.cpu00.dcache.ReadReq_accesses::cpu00.data       172462                       # number of ReadReq accesses(hits+misses)
system.cpu00.dcache.ReadReq_accesses::total       172462                       # number of ReadReq accesses(hits+misses)
system.cpu00.dcache.WriteReq_accesses::cpu00.data       122290                       # number of WriteReq accesses(hits+misses)
system.cpu00.dcache.WriteReq_accesses::total       122290                       # number of WriteReq accesses(hits+misses)
system.cpu00.dcache.LoadLockedReq_accesses::cpu00.data         1367                       # number of LoadLockedReq accesses(hits+misses)
system.cpu00.dcache.LoadLockedReq_accesses::total         1367                       # number of LoadLockedReq accesses(hits+misses)
system.cpu00.dcache.StoreCondReq_accesses::cpu00.data         1283                       # number of StoreCondReq accesses(hits+misses)
system.cpu00.dcache.StoreCondReq_accesses::total         1283                       # number of StoreCondReq accesses(hits+misses)
system.cpu00.dcache.demand_accesses::cpu00.data       294752                       # number of demand (read+write) accesses
system.cpu00.dcache.demand_accesses::total       294752                       # number of demand (read+write) accesses
system.cpu00.dcache.overall_accesses::cpu00.data       294752                       # number of overall (read+write) accesses
system.cpu00.dcache.overall_accesses::total       294752                       # number of overall (read+write) accesses
system.cpu00.dcache.ReadReq_miss_rate::cpu00.data     0.052272                       # miss rate for ReadReq accesses
system.cpu00.dcache.ReadReq_miss_rate::total     0.052272                       # miss rate for ReadReq accesses
system.cpu00.dcache.WriteReq_miss_rate::cpu00.data     0.271453                       # miss rate for WriteReq accesses
system.cpu00.dcache.WriteReq_miss_rate::total     0.271453                       # miss rate for WriteReq accesses
system.cpu00.dcache.LoadLockedReq_miss_rate::cpu00.data     0.214338                       # miss rate for LoadLockedReq accesses
system.cpu00.dcache.LoadLockedReq_miss_rate::total     0.214338                       # miss rate for LoadLockedReq accesses
system.cpu00.dcache.StoreCondReq_miss_rate::cpu00.data     0.070148                       # miss rate for StoreCondReq accesses
system.cpu00.dcache.StoreCondReq_miss_rate::total     0.070148                       # miss rate for StoreCondReq accesses
system.cpu00.dcache.demand_miss_rate::cpu00.data     0.143209                       # miss rate for demand accesses
system.cpu00.dcache.demand_miss_rate::total     0.143209                       # miss rate for demand accesses
system.cpu00.dcache.overall_miss_rate::cpu00.data     0.143209                       # miss rate for overall accesses
system.cpu00.dcache.overall_miss_rate::total     0.143209                       # miss rate for overall accesses
system.cpu00.dcache.ReadReq_avg_miss_latency::cpu00.data 43443.548087                       # average ReadReq miss latency
system.cpu00.dcache.ReadReq_avg_miss_latency::total 43443.548087                       # average ReadReq miss latency
system.cpu00.dcache.WriteReq_avg_miss_latency::cpu00.data 163065.653934                       # average WriteReq miss latency
system.cpu00.dcache.WriteReq_avg_miss_latency::total 163065.653934                       # average WriteReq miss latency
system.cpu00.dcache.LoadLockedReq_avg_miss_latency::cpu00.data 11250.061433                       # average LoadLockedReq miss latency
system.cpu00.dcache.LoadLockedReq_avg_miss_latency::total 11250.061433                       # average LoadLockedReq miss latency
system.cpu00.dcache.StoreCondReq_avg_miss_latency::cpu00.data 11481.600000                       # average StoreCondReq miss latency
system.cpu00.dcache.StoreCondReq_avg_miss_latency::total 11481.600000                       # average StoreCondReq miss latency
system.cpu00.dcache.StoreCondFailReq_avg_miss_latency::cpu00.data          inf                       # average StoreCondFailReq miss latency
system.cpu00.dcache.StoreCondFailReq_avg_miss_latency::total          inf                       # average StoreCondFailReq miss latency
system.cpu00.dcache.demand_avg_miss_latency::cpu00.data 137517.970055                       # average overall miss latency
system.cpu00.dcache.demand_avg_miss_latency::total 137517.970055                       # average overall miss latency
system.cpu00.dcache.overall_avg_miss_latency::cpu00.data 137517.970055                       # average overall miss latency
system.cpu00.dcache.overall_avg_miss_latency::total 137517.970055                       # average overall miss latency
system.cpu00.dcache.blocked_cycles::no_mshrs       147930                       # number of cycles access was blocked
system.cpu00.dcache.blocked_cycles::no_targets            1                       # number of cycles access was blocked
system.cpu00.dcache.blocked::no_mshrs            2581                       # number of cycles access was blocked
system.cpu00.dcache.blocked::no_targets             1                       # number of cycles access was blocked
system.cpu00.dcache.avg_blocked_cycles::no_mshrs    57.314994                       # average number of cycles each access was blocked
system.cpu00.dcache.avg_blocked_cycles::no_targets            1                       # average number of cycles each access was blocked
system.cpu00.dcache.fast_writes                     0                       # number of fast writes performed
system.cpu00.dcache.cache_copies                    0                       # number of cache copies performed
system.cpu00.dcache.writebacks::writebacks         8374                       # number of writebacks
system.cpu00.dcache.writebacks::total            8374                       # number of writebacks
system.cpu00.dcache.ReadReq_mshr_hits::cpu00.data         3044                       # number of ReadReq MSHR hits
system.cpu00.dcache.ReadReq_mshr_hits::total         3044                       # number of ReadReq MSHR hits
system.cpu00.dcache.WriteReq_mshr_hits::cpu00.data        26737                       # number of WriteReq MSHR hits
system.cpu00.dcache.WriteReq_mshr_hits::total        26737                       # number of WriteReq MSHR hits
system.cpu00.dcache.LoadLockedReq_mshr_hits::cpu00.data          131                       # number of LoadLockedReq MSHR hits
system.cpu00.dcache.LoadLockedReq_mshr_hits::total          131                       # number of LoadLockedReq MSHR hits
system.cpu00.dcache.demand_mshr_hits::cpu00.data        29781                       # number of demand (read+write) MSHR hits
system.cpu00.dcache.demand_mshr_hits::total        29781                       # number of demand (read+write) MSHR hits
system.cpu00.dcache.overall_mshr_hits::cpu00.data        29781                       # number of overall MSHR hits
system.cpu00.dcache.overall_mshr_hits::total        29781                       # number of overall MSHR hits
system.cpu00.dcache.ReadReq_mshr_misses::cpu00.data         5971                       # number of ReadReq MSHR misses
system.cpu00.dcache.ReadReq_mshr_misses::total         5971                       # number of ReadReq MSHR misses
system.cpu00.dcache.WriteReq_mshr_misses::cpu00.data         6459                       # number of WriteReq MSHR misses
system.cpu00.dcache.WriteReq_mshr_misses::total         6459                       # number of WriteReq MSHR misses
system.cpu00.dcache.LoadLockedReq_mshr_misses::cpu00.data          162                       # number of LoadLockedReq MSHR misses
system.cpu00.dcache.LoadLockedReq_mshr_misses::total          162                       # number of LoadLockedReq MSHR misses
system.cpu00.dcache.StoreCondReq_mshr_misses::cpu00.data           90                       # number of StoreCondReq MSHR misses
system.cpu00.dcache.StoreCondReq_mshr_misses::total           90                       # number of StoreCondReq MSHR misses
system.cpu00.dcache.demand_mshr_misses::cpu00.data        12430                       # number of demand (read+write) MSHR misses
system.cpu00.dcache.demand_mshr_misses::total        12430                       # number of demand (read+write) MSHR misses
system.cpu00.dcache.overall_mshr_misses::cpu00.data        12430                       # number of overall MSHR misses
system.cpu00.dcache.overall_mshr_misses::total        12430                       # number of overall MSHR misses
system.cpu00.dcache.ReadReq_mshr_miss_latency::cpu00.data    230270526                       # number of ReadReq MSHR miss cycles
system.cpu00.dcache.ReadReq_mshr_miss_latency::total    230270526                       # number of ReadReq MSHR miss cycles
system.cpu00.dcache.WriteReq_mshr_miss_latency::cpu00.data   1149778879                       # number of WriteReq MSHR miss cycles
system.cpu00.dcache.WriteReq_mshr_miss_latency::total   1149778879                       # number of WriteReq MSHR miss cycles
system.cpu00.dcache.LoadLockedReq_mshr_miss_latency::cpu00.data      1656828                       # number of LoadLockedReq MSHR miss cycles
system.cpu00.dcache.LoadLockedReq_mshr_miss_latency::total      1656828                       # number of LoadLockedReq MSHR miss cycles
system.cpu00.dcache.StoreCondReq_mshr_miss_latency::cpu00.data       926532                       # number of StoreCondReq MSHR miss cycles
system.cpu00.dcache.StoreCondReq_mshr_miss_latency::total       926532                       # number of StoreCondReq MSHR miss cycles
system.cpu00.dcache.StoreCondFailReq_mshr_miss_latency::cpu00.data       303048                       # number of StoreCondFailReq MSHR miss cycles
system.cpu00.dcache.StoreCondFailReq_mshr_miss_latency::total       303048                       # number of StoreCondFailReq MSHR miss cycles
system.cpu00.dcache.demand_mshr_miss_latency::cpu00.data   1380049405                       # number of demand (read+write) MSHR miss cycles
system.cpu00.dcache.demand_mshr_miss_latency::total   1380049405                       # number of demand (read+write) MSHR miss cycles
system.cpu00.dcache.overall_mshr_miss_latency::cpu00.data   1380049405                       # number of overall MSHR miss cycles
system.cpu00.dcache.overall_mshr_miss_latency::total   1380049405                       # number of overall MSHR miss cycles
system.cpu00.dcache.ReadReq_mshr_miss_rate::cpu00.data     0.034622                       # mshr miss rate for ReadReq accesses
system.cpu00.dcache.ReadReq_mshr_miss_rate::total     0.034622                       # mshr miss rate for ReadReq accesses
system.cpu00.dcache.WriteReq_mshr_miss_rate::cpu00.data     0.052817                       # mshr miss rate for WriteReq accesses
system.cpu00.dcache.WriteReq_mshr_miss_rate::total     0.052817                       # mshr miss rate for WriteReq accesses
system.cpu00.dcache.LoadLockedReq_mshr_miss_rate::cpu00.data     0.118508                       # mshr miss rate for LoadLockedReq accesses
system.cpu00.dcache.LoadLockedReq_mshr_miss_rate::total     0.118508                       # mshr miss rate for LoadLockedReq accesses
system.cpu00.dcache.StoreCondReq_mshr_miss_rate::cpu00.data     0.070148                       # mshr miss rate for StoreCondReq accesses
system.cpu00.dcache.StoreCondReq_mshr_miss_rate::total     0.070148                       # mshr miss rate for StoreCondReq accesses
system.cpu00.dcache.demand_mshr_miss_rate::cpu00.data     0.042171                       # mshr miss rate for demand accesses
[...]
system.tol2bus.pkt_count_system.cpu06.dcache.mem_side::system.l2.cpu_side         2087                       # Packet count per connected master and slave (bytes)
system.tol2bus.pkt_count_system.cpu07.icache.mem_side::system.l2.cpu_side         2879                       # Packet count per connected master and slave (bytes)
system.tol2bus.pkt_count_system.cpu07.dcache.mem_side::system.l2.cpu_side         2978                       # Packet count per connected master and slave (bytes)
system.tol2bus.pkt_count_system.cpu08.icache.mem_side::system.l2.cpu_side         2295                       # Packet count per connected master and slave (bytes)
system.tol2bus.pkt_count_system.cpu08.dcache.mem_side::system.l2.cpu_side         1777                       # Packet count per connected master and slave (bytes)
system.tol2bus.pkt_count_system.cpu09.icache.mem_side::system.l2.cpu_side         4028                       # Packet count per connected master and slave (bytes)
system.tol2bus.pkt_count_system.cpu09.dcache.mem_side::system.l2.cpu_side         3101                       # Packet count per connected master and slave (bytes)
system.tol2bus.pkt_count_system.cpu10.icache.mem_side::system.l2.cpu_side         2341                       # Packet count per connected master and slave (bytes)
system.tol2bus.pkt_count_system.cpu10.dcache.mem_side::system.l2.cpu_side         2400                       # Packet count per connected master and slave (bytes)
system.tol2bus.pkt_count_system.cpu11.icache.mem_side::system.l2.cpu_side         2461                       # Packet count per connected master and slave (bytes)
system.tol2bus.pkt_count_system.cpu11.dcache.mem_side::system.l2.cpu_side         2613                       # Packet count per connected master and slave (bytes)
system.tol2bus.pkt_count_system.cpu12.icache.mem_side::system.l2.cpu_side         1575                       # Packet count per connected master and slave (bytes)
system.tol2bus.pkt_count_system.cpu12.dcache.mem_side::system.l2.cpu_side         1772                       # Packet count per connected master and slave (bytes)
system.tol2bus.pkt_count_system.cpu13.icache.mem_side::system.l2.cpu_side         2472                       # Packet count per connected master and slave (bytes)
system.tol2bus.pkt_count_system.cpu13.dcache.mem_side::system.l2.cpu_side         2355                       # Packet count per connected master and slave (bytes)
system.tol2bus.pkt_count_system.cpu14.icache.mem_side::system.l2.cpu_side          922                       # Packet count per connected master and slave (bytes)
system.tol2bus.pkt_count_system.cpu14.dcache.mem_side::system.l2.cpu_side         1125                       # Packet count per connected master and slave (bytes)
system.tol2bus.pkt_count_system.cpu15.icache.mem_side::system.l2.cpu_side         1025                       # Packet count per connected master and slave (bytes)
system.tol2bus.pkt_count_system.cpu15.dcache.mem_side::system.l2.cpu_side         1124                       # Packet count per connected master and slave (bytes)
system.tol2bus.pkt_count::total                123070                       # Packet count per connected master and slave (bytes)
system.tol2bus.pkt_size_system.cpu00.icache.mem_side::system.l2.cpu_side       999808                       # Cumulative packet size per connected master and slave (bytes)
system.tol2bus.pkt_size_system.cpu00.dcache.mem_side::system.l2.cpu_side      1264576                       # Cumulative packet size per connected master and slave (bytes)
system.tol2bus.pkt_size_system.cpu01.icache.mem_side::system.l2.cpu_side        82752                       # Cumulative packet size per connected master and slave (bytes)
system.tol2bus.pkt_size_system.cpu01.dcache.mem_side::system.l2.cpu_side        45248                       # Cumulative packet size per connected master and slave (bytes)
system.tol2bus.pkt_size_system.cpu02.icache.mem_side::system.l2.cpu_side        68608                       # Cumulative packet size per connected master and slave (bytes)
system.tol2bus.pkt_size_system.cpu02.dcache.mem_side::system.l2.cpu_side        38528                       # Cumulative packet size per connected master and slave (bytes)
system.tol2bus.pkt_size_system.cpu03.icache.mem_side::system.l2.cpu_side        87552                       # Cumulative packet size per connected master and slave (bytes)
system.tol2bus.pkt_size_system.cpu03.dcache.mem_side::system.l2.cpu_side        46336                       # Cumulative packet size per connected master and slave (bytes)
system.tol2bus.pkt_size_system.cpu04.icache.mem_side::system.l2.cpu_side        95424                       # Cumulative packet size per connected master and slave (bytes)
system.tol2bus.pkt_size_system.cpu04.dcache.mem_side::system.l2.cpu_side        44928                       # Cumulative packet size per connected master and slave (bytes)
system.tol2bus.pkt_size_system.cpu05.icache.mem_side::system.l2.cpu_side        33600                       # Cumulative packet size per connected master and slave (bytes)
system.tol2bus.pkt_size_system.cpu05.dcache.mem_side::system.l2.cpu_side        29248                       # Cumulative packet size per connected master and slave (bytes)
system.tol2bus.pkt_size_system.cpu06.icache.mem_side::system.l2.cpu_side        84096                       # Cumulative packet size per connected master and slave (bytes)
system.tol2bus.pkt_size_system.cpu06.dcache.mem_side::system.l2.cpu_side        41344                       # Cumulative packet size per connected master and slave (bytes)
system.tol2bus.pkt_size_system.cpu07.icache.mem_side::system.l2.cpu_side       112448                       # Cumulative packet size per connected master and slave (bytes)
system.tol2bus.pkt_size_system.cpu07.dcache.mem_side::system.l2.cpu_side        47296                       # Cumulative packet size per connected master and slave (bytes)
system.tol2bus.pkt_size_system.cpu08.icache.mem_side::system.l2.cpu_side        87680                       # Cumulative packet size per connected master and slave (bytes)
system.tol2bus.pkt_size_system.cpu08.dcache.mem_side::system.l2.cpu_side        41344                       # Cumulative packet size per connected master and slave (bytes)
system.tol2bus.pkt_size_system.cpu09.icache.mem_side::system.l2.cpu_side       161152                       # Cumulative packet size per connected master and slave (bytes)
system.tol2bus.pkt_size_system.cpu09.dcache.mem_side::system.l2.cpu_side        64576                       # Cumulative packet size per connected master and slave (bytes)
system.tol2bus.pkt_size_system.cpu10.icache.mem_side::system.l2.cpu_side        89920                       # Cumulative packet size per connected master and slave (bytes)
system.tol2bus.pkt_size_system.cpu10.dcache.mem_side::system.l2.cpu_side        39872                       # Cumulative packet size per connected master and slave (bytes)
system.tol2bus.pkt_size_system.cpu11.icache.mem_side::system.l2.cpu_side        94592                       # Cumulative packet size per connected master and slave (bytes)
system.tol2bus.pkt_size_system.cpu11.dcache.mem_side::system.l2.cpu_side        48064                       # Cumulative packet size per connected master and slave (bytes)
system.tol2bus.pkt_size_system.cpu12.icache.mem_side::system.l2.cpu_side        57344                       # Cumulative packet size per connected master and slave (bytes)
system.tol2bus.pkt_size_system.cpu12.dcache.mem_side::system.l2.cpu_side        37760                       # Cumulative packet size per connected master and slave (bytes)
system.tol2bus.pkt_size_system.cpu13.icache.mem_side::system.l2.cpu_side        95040                       # Cumulative packet size per connected master and slave (bytes)
system.tol2bus.pkt_size_system.cpu13.dcache.mem_side::system.l2.cpu_side        40960                       # Cumulative packet size per connected master and slave (bytes)
system.tol2bus.pkt_size_system.cpu14.icache.mem_side::system.l2.cpu_side        31232                       # Cumulative packet size per connected master and slave (bytes)
system.tol2bus.pkt_size_system.cpu14.dcache.mem_side::system.l2.cpu_side        35968                       # Cumulative packet size per connected master and slave (bytes)
system.tol2bus.pkt_size_system.cpu15.icache.mem_side::system.l2.cpu_side        35328                       # Cumulative packet size per connected master and slave (bytes)
system.tol2bus.pkt_size_system.cpu15.dcache.mem_side::system.l2.cpu_side        33024                       # Cumulative packet size per connected master and slave (bytes)
system.tol2bus.pkt_size::total                4115648                       # Cumulative packet size per connected master and slave (bytes)
system.tol2bus.snoops                           10780                       # Total snoops (count)
system.tol2bus.snoop_fanout::samples            51281                       # Request fanout histogram
system.tol2bus.snoop_fanout::mean            2.531288                       # Request fanout histogram
system.tol2bus.snoop_fanout::stdev           3.980951                       # Request fanout histogram
system.tol2bus.snoop_fanout::underflows             0      0.00%      0.00% # Request fanout histogram
system.tol2bus.snoop_fanout::0                  25182     49.11%     49.11% # Request fanout histogram
system.tol2bus.snoop_fanout::1                   8892     17.34%     66.45% # Request fanout histogram
system.tol2bus.snoop_fanout::2                   2887      5.63%     72.08% # Request fanout histogram
system.tol2bus.snoop_fanout::3                   1829      3.57%     75.64% # Request fanout histogram
system.tol2bus.snoop_fanout::4                   1443      2.81%     78.46% # Request fanout histogram
system.tol2bus.snoop_fanout::5                   1289      2.51%     80.97% # Request fanout histogram
system.tol2bus.snoop_fanout::6                   1232      2.40%     83.37% # Request fanout histogram
system.tol2bus.snoop_fanout::7                   1165      2.27%     85.64% # Request fanout histogram
system.tol2bus.snoop_fanout::8                   1135      2.21%     87.86% # Request fanout histogram
system.tol2bus.snoop_fanout::9                   1100      2.15%     90.00% # Request fanout histogram
system.tol2bus.snoop_fanout::10                   992      1.93%     91.94% # Request fanout histogram
system.tol2bus.snoop_fanout::11                   923      1.80%     93.74% # Request fanout histogram
system.tol2bus.snoop_fanout::12                   923      1.80%     95.54% # Request fanout histogram
system.tol2bus.snoop_fanout::13                   849      1.66%     97.19% # Request fanout histogram
system.tol2bus.snoop_fanout::14                   876      1.71%     98.90% # Request fanout histogram
system.tol2bus.snoop_fanout::15                   564      1.10%    100.00% # Request fanout histogram
system.tol2bus.snoop_fanout::16                     0      0.00%    100.00% # Request fanout histogram
system.tol2bus.snoop_fanout::17                     0      0.00%    100.00% # Request fanout histogram
system.tol2bus.snoop_fanout::18                     0      0.00%    100.00% # Request fanout histogram
system.tol2bus.snoop_fanout::19                     0      0.00%    100.00% # Request fanout histogram
system.tol2bus.snoop_fanout::20                     0      0.00%    100.00% # Request fanout histogram
system.tol2bus.snoop_fanout::21                     0      0.00%    100.00% # Request fanout histogram
system.tol2bus.snoop_fanout::22                     0      0.00%    100.00% # Request fanout histogram
system.tol2bus.snoop_fanout::23                     0      0.00%    100.00% # Request fanout histogram
system.tol2bus.snoop_fanout::24                     0      0.00%    100.00% # Request fanout histogram
system.tol2bus.snoop_fanout::25                     0      0.00%    100.00% # Request fanout histogram
system.tol2bus.snoop_fanout::26                     0      0.00%    100.00% # Request fanout histogram
system.tol2bus.snoop_fanout::27                     0      0.00%    100.00% # Request fanout histogram
system.tol2bus.snoop_fanout::28                     0      0.00%    100.00% # Request fanout histogram
system.tol2bus.snoop_fanout::29                     0      0.00%    100.00% # Request fanout histogram
system.tol2bus.snoop_fanout::30                     0      0.00%    100.00% # Request fanout histogram
system.tol2bus.snoop_fanout::31                     0      0.00%    100.00% # Request fanout histogram
system.tol2bus.snoop_fanout::32                     0      0.00%    100.00% # Request fanout histogram
system.tol2bus.snoop_fanout::overflows              0      0.00%    100.00% # Request fanout histogram
system.tol2bus.snoop_fanout::min_value              0                       # Request fanout histogram
system.tol2bus.snoop_fanout::max_value             15                       # Request fanout histogram
system.tol2bus.snoop_fanout::total              51281                       # Request fanout histogram
system.tol2bus.reqLayer0.occupancy          165830687                       # Layer occupancy (ticks)
system.tol2bus.reqLayer0.utilization             12.7                       # Layer utilization (%)
system.tol2bus.respLayer0.occupancy          30376864                       # Layer occupancy (ticks)
system.tol2bus.respLayer0.utilization             2.3                       # Layer utilization (%)
system.tol2bus.respLayer1.occupancy          46795805                       # Layer occupancy (ticks)
system.tol2bus.respLayer1.utilization             3.6                       # Layer utilization (%)
system.tol2bus.respLayer2.occupancy           3400231                       # Layer occupancy (ticks)
system.tol2bus.respLayer2.utilization             0.3                       # Layer utilization (%)
system.tol2bus.respLayer3.occupancy           3843863                       # Layer occupancy (ticks)
system.tol2bus.respLayer3.utilization             0.3                       # Layer utilization (%)
system.tol2bus.respLayer4.occupancy           3008737                       # Layer occupancy (ticks)
system.tol2bus.respLayer4.utilization             0.2                       # Layer utilization (%)
system.tol2bus.respLayer5.occupancy           2395742                       # Layer occupancy (ticks)
system.tol2bus.respLayer5.utilization             0.2                       # Layer utilization (%)
system.tol2bus.respLayer6.occupancy           3541875                       # Layer occupancy (ticks)
system.tol2bus.respLayer6.utilization             0.3                       # Layer utilization (%)
system.tol2bus.respLayer7.occupancy           4419762                       # Layer occupancy (ticks)
system.tol2bus.respLayer7.utilization             0.3                       # Layer utilization (%)
system.tol2bus.respLayer8.occupancy           3762598                       # Layer occupancy (ticks)
system.tol2bus.respLayer8.utilization             0.3                       # Layer utilization (%)
system.tol2bus.respLayer9.occupancy           5180991                       # Layer occupancy (ticks)
system.tol2bus.respLayer9.utilization             0.4                       # Layer utilization (%)
system.tol2bus.respLayer10.occupancy          1753797                       # Layer occupancy (ticks)
system.tol2bus.respLayer10.utilization            0.1                       # Layer utilization (%)
system.tol2bus.respLayer11.occupancy          1757604                       # Layer occupancy (ticks)
system.tol2bus.respLayer11.utilization            0.1                       # Layer utilization (%)
system.tol2bus.respLayer12.occupancy          3413449                       # Layer occupancy (ticks)
system.tol2bus.respLayer12.utilization            0.3                       # Layer utilization (%)
system.tol2bus.respLayer13.occupancy          3755738                       # Layer occupancy (ticks)
system.tol2bus.respLayer13.utilization            0.3                       # Layer utilization (%)
system.tol2bus.respLayer14.occupancy          4249706                       # Layer occupancy (ticks)
system.tol2bus.respLayer14.utilization            0.3                       # Layer utilization (%)
system.tol2bus.respLayer15.occupancy          5359552                       # Layer occupancy (ticks)
system.tol2bus.respLayer15.utilization            0.4                       # Layer utilization (%)
system.tol2bus.respLayer16.occupancy          3558023                       # Layer occupancy (ticks)
system.tol2bus.respLayer16.utilization            0.3                       # Layer utilization (%)
system.tol2bus.respLayer17.occupancy          2972028                       # Layer occupancy (ticks)
system.tol2bus.respLayer17.utilization            0.2                       # Layer utilization (%)
system.tol2bus.respLayer18.occupancy          5715450                       # Layer occupancy (ticks)
system.tol2bus.respLayer18.utilization            0.4                       # Layer utilization (%)
system.tol2bus.respLayer19.occupancy          5172835                       # Layer occupancy (ticks)
system.tol2bus.respLayer19.utilization            0.4                       # Layer utilization (%)
system.tol2bus.respLayer20.occupancy          3579174                       # Layer occupancy (ticks)
system.tol2bus.respLayer20.utilization            0.3                       # Layer utilization (%)
system.tol2bus.respLayer21.occupancy          4323309                       # Layer occupancy (ticks)
system.tol2bus.respLayer21.utilization            0.3                       # Layer utilization (%)
system.tol2bus.respLayer22.occupancy          3755464                       # Layer occupancy (ticks)
system.tol2bus.respLayer22.utilization            0.3                       # Layer utilization (%)
system.tol2bus.respLayer23.occupancy          4736898                       # Layer occupancy (ticks)
system.tol2bus.respLayer23.utilization            0.4                       # Layer utilization (%)
system.tol2bus.respLayer24.occupancy          2592573                       # Layer occupancy (ticks)
system.tol2bus.respLayer24.utilization            0.2                       # Layer utilization (%)
system.tol2bus.respLayer25.occupancy          2718313                       # Layer occupancy (ticks)
system.tol2bus.respLayer25.utilization            0.2                       # Layer utilization (%)
system.tol2bus.respLayer26.occupancy          3802832                       # Layer occupancy (ticks)
system.tol2bus.respLayer26.utilization            0.3                       # Layer utilization (%)
system.tol2bus.respLayer27.occupancy          4171776                       # Layer occupancy (ticks)
system.tol2bus.respLayer27.utilization            0.3                       # Layer utilization (%)
system.tol2bus.respLayer28.occupancy          1658628                       # Layer occupancy (ticks)
system.tol2bus.respLayer28.utilization            0.1                       # Layer utilization (%)
system.tol2bus.respLayer29.occupancy          1695233                       # Layer occupancy (ticks)
system.tol2bus.respLayer29.utilization            0.1                       # Layer utilization (%)
system.tol2bus.respLayer30.occupancy          1803257                       # Layer occupancy (ticks)
system.tol2bus.respLayer30.utilization            0.1                       # Layer utilization (%)
system.tol2bus.respLayer31.occupancy          1769417                       # Layer occupancy (ticks)
system.tol2bus.respLayer31.utilization            0.1                       # Layer utilization (%)

---------- End Simulation Statistics   ----------
