
---------- Begin Simulation Statistics ----------
sim_seconds                                  0.001344                       # Number of seconds simulated
sim_ticks                                  1344380544                       # Number of ticks simulated
final_tick                                 1344380544                       # Number of ticks from beginning of simulation (restored from checkpoints and never reset)
sim_freq                                 1000000000000                       # Frequency of simulated ticks
host_inst_rate                                 236650                       # Simulator instruction rate (inst/s)
host_op_rate                                   236650                       # Simulator op (including micro ops) rate (op/s)
host_tick_rate                              103200340                       # Simulator tick rate (ticks/s)
host_mem_usage                                 694952                       # Number of bytes of host memory used
host_seconds                                    13.03                       # Real time elapsed on the host
sim_insts                                     3082809                       # Number of instructions simulated
sim_ops                                       3082809                       # Number of ops (including micro ops) simulated
system.voltage_domain.voltage                       1                       # Voltage in Volts
system.clk_domain.clock                          1000                       # Clock period in ticks
system.mem_ctrls.bytes_read::cpu00.inst        123328                       # Number of bytes read from this memory
system.mem_ctrls.bytes_read::cpu00.data        378304                       # Number of bytes read from this memory
system.mem_ctrls.bytes_read::cpu01.inst         11840                       # Number of bytes read from this memory
system.mem_ctrls.bytes_read::cpu01.data          7168                       # Number of bytes read from this memory
system.mem_ctrls.bytes_read::cpu02.inst          1472                       # Number of bytes read from this memory
system.mem_ctrls.bytes_read::cpu02.data          7104                       # Number of bytes read from this memory
system.mem_ctrls.bytes_read::cpu03.inst           896                       # Number of bytes read from this memory
system.mem_ctrls.bytes_read::cpu03.data          4864                       # Number of bytes read from this memory
system.mem_ctrls.bytes_read::cpu04.inst          1152                       # Number of bytes read from this memory
system.mem_ctrls.bytes_read::cpu04.data          5632                       # Number of bytes read from this memory
system.mem_ctrls.bytes_read::cpu05.inst           128                       # Number of bytes read from this memory
system.mem_ctrls.bytes_read::cpu05.data          5248                       # Number of bytes read from this memory
system.mem_ctrls.bytes_read::cpu06.inst           704                       # Number of bytes read from this memory
system.mem_ctrls.bytes_read::cpu06.data          5888                       # Number of bytes read from this memory
system.mem_ctrls.bytes_read::cpu07.inst          1216                       # Number of bytes read from this memory
system.mem_ctrls.bytes_read::cpu07.data          6144                       # Number of bytes read from this memory
system.mem_ctrls.bytes_read::cpu08.inst           640                       # Number of bytes read from this memory
system.mem_ctrls.bytes_read::cpu08.data          5696                       # Number of bytes read from this memory
system.mem_ctrls.bytes_read::cpu09.inst           832                       # Number of bytes read from this memory
system.mem_ctrls.bytes_read::cpu09.data          7936                       # Number of bytes read from this memory
system.mem_ctrls.bytes_read::cpu10.inst          1536                       # Number of bytes read from this memory
system.mem_ctrls.bytes_read::cpu10.data          6592                       # Number of bytes read from this memory
system.mem_ctrls.bytes_read::cpu11.inst          1088                       # Number of bytes read from this memory
system.mem_ctrls.bytes_read::cpu11.data          5888                       # Number of bytes read from this memory
system.mem_ctrls.bytes_read::cpu12.inst          4288                       # Number of bytes read from this memory
system.mem_ctrls.bytes_read::cpu12.data          5824                       # Number of bytes read from this memory
system.mem_ctrls.bytes_read::cpu13.inst          1792                       # Number of bytes read from this memory
system.mem_ctrls.bytes_read::cpu13.data          5696                       # Number of bytes read from this memory
system.mem_ctrls.bytes_read::cpu14.inst           320                       # Number of bytes read from this memory
system.mem_ctrls.bytes_read::cpu14.data          5696                       # Number of bytes read from this memory
system.mem_ctrls.bytes_read::cpu15.inst          4096                       # Number of bytes read from this memory
system.mem_ctrls.bytes_read::cpu15.data          5248                       # Number of bytes read from this memory
system.mem_ctrls.bytes_read::total             624256                       # Number of bytes read from this memory
system.mem_ctrls.bytes_inst_read::cpu00.inst       123328                       # Number of instructions bytes read from this memory
system.mem_ctrls.bytes_inst_read::cpu01.inst        11840                       # Number of instructions bytes read from this memory
system.mem_ctrls.bytes_inst_read::cpu02.inst         1472                       # Number of instructions bytes read from this memory
system.mem_ctrls.bytes_inst_read::cpu03.inst          896                       # Number of instructions bytes read from this memory
system.mem_ctrls.bytes_inst_read::cpu04.inst         1152                       # Number of instructions bytes read from this memory
system.mem_ctrls.bytes_inst_read::cpu05.inst          128                       # Number of instructions bytes read from this memory
system.mem_ctrls.bytes_inst_read::cpu06.inst          704                       # Number of instructions bytes read from this memory
system.mem_ctrls.bytes_inst_read::cpu07.inst         1216                       # Number of instructions bytes read from this memory
system.mem_ctrls.bytes_inst_read::cpu08.inst          640                       # Number of instructions bytes read from this memory
system.mem_ctrls.bytes_inst_read::cpu09.inst          832                       # Number of instructions bytes read from this memory
system.mem_ctrls.bytes_inst_read::cpu10.inst         1536                       # Number of instructions bytes read from this memory
system.mem_ctrls.bytes_inst_read::cpu11.inst         1088                       # Number of instructions bytes read from this memory
system.mem_ctrls.bytes_inst_read::cpu12.inst         4288                       # Number of instructions bytes read from this memory
system.mem_ctrls.bytes_inst_read::cpu13.inst         1792                       # Number of instructions bytes read from this memory
system.mem_ctrls.bytes_inst_read::cpu14.inst          320                       # Number of instructions bytes read from this memory
system.mem_ctrls.bytes_inst_read::cpu15.inst         4096                       # Number of instructions bytes read from this memory
system.mem_ctrls.bytes_inst_read::total        155328                       # Number of instructions bytes read from this memory
system.mem_ctrls.bytes_written::writebacks        75264                       # Number of bytes written to this memory
system.mem_ctrls.bytes_written::total           75264                       # Number of bytes written to this memory
system.mem_ctrls.num_reads::cpu00.inst           1927                       # Number of read requests responded to by this memory
system.mem_ctrls.num_reads::cpu00.data           5911                       # Number of read requests responded to by this memory
system.mem_ctrls.num_reads::cpu01.inst            185                       # Number of read requests responded to by this memory
system.mem_ctrls.num_reads::cpu01.data            112                       # Number of read requests responded to by this memory
system.mem_ctrls.num_reads::cpu02.inst             23                       # Number of read requests responded to by this memory
system.mem_ctrls.num_reads::cpu02.data            111                       # Number of read requests responded to by this memory
system.mem_ctrls.num_reads::cpu03.inst             14                       # Number of read requests responded to by this memory
system.mem_ctrls.num_reads::cpu03.data             76                       # Number of read requests responded to by this memory
system.mem_ctrls.num_reads::cpu04.inst             18                       # Number of read requests responded to by this memory
system.mem_ctrls.num_reads::cpu04.data             88                       # Number of read requests responded to by this memory
system.mem_ctrls.num_reads::cpu05.inst              2                       # Number of read requests responded to by this memory
system.mem_ctrls.num_reads::cpu05.data             82                       # Number of read requests responded to by this memory
system.mem_ctrls.num_reads::cpu06.inst             11                       # Number of read requests responded to by this memory
system.mem_ctrls.num_reads::cpu06.data             92                       # Number of read requests responded to by this memory
system.mem_ctrls.num_reads::cpu07.inst             19                       # Number of read requests responded to by this memory
system.mem_ctrls.num_reads::cpu07.data             96                       # Number of read requests responded to by this memory
system.mem_ctrls.num_reads::cpu08.inst             10                       # Number of read requests responded to by this memory
system.mem_ctrls.num_reads::cpu08.data             89                       # Number of read requests responded to by this memory
system.mem_ctrls.num_reads::cpu09.inst             13                       # Number of read requests responded to by this memory
system.mem_ctrls.num_reads::cpu09.data            124                       # Number of read requests responded to by this memory
system.mem_ctrls.num_reads::cpu10.inst             24                       # Number of read requests responded to by this memory
system.mem_ctrls.num_reads::cpu10.data            103                       # Number of read requests responded to by this memory
system.mem_ctrls.num_reads::cpu11.inst             17                       # Number of read requests responded to by this memory
system.mem_ctrls.num_reads::cpu11.data             92                       # Number of read requests responded to by this memory
system.mem_ctrls.num_reads::cpu12.inst             67                       # Number of read requests responded to by this memory
system.mem_ctrls.num_reads::cpu12.data             91                       # Number of read requests responded to by this memory
system.mem_ctrls.num_reads::cpu13.inst             28                       # Number of read requests responded to by this memory
system.mem_ctrls.num_reads::cpu13.data             89                       # Number of read requests responded to by this memory
system.mem_ctrls.num_reads::cpu14.inst              5                       # Number of read requests responded to by this memory
system.mem_ctrls.num_reads::cpu14.data             89                       # Number of read requests responded to by this memory
system.mem_ctrls.num_reads::cpu15.inst             64                       # Number of read requests responded to by this memory
system.mem_ctrls.num_reads::cpu15.data             82                       # Number of read requests responded to by this memory
system.mem_ctrls.num_reads::total                9754                       # Number of read requests responded to by this memory
system.mem_ctrls.num_writes::writebacks          1176                       # Number of write requests responded to by this memory
system.mem_ctrls.num_writes::total               1176                       # Number of write requests responded to by this memory
system.mem_ctrls.bw_read::cpu00.inst         91735930                       # Total read bandwidth from this memory (bytes/s)
system.mem_ctrls.bw_read::cpu00.data        281396515                       # Total read bandwidth from this memory (bytes/s)
system.mem_ctrls.bw_read::cpu01.inst          8807030                       # Total read bandwidth from this memory (bytes/s)
system.mem_ctrls.bw_read::cpu01.data          5331824                       # Total read bandwidth from this memory (bytes/s)
system.mem_ctrls.bw_read::cpu02.inst          1094928                       # Total read bandwidth from this memory (bytes/s)
system.mem_ctrls.bw_read::cpu02.data          5284218                       # Total read bandwidth from this memory (bytes/s)
system.mem_ctrls.bw_read::cpu03.inst           666478                       # Total read bandwidth from this memory (bytes/s)
system.mem_ctrls.bw_read::cpu03.data          3618023                       # Total read bandwidth from this memory (bytes/s)
system.mem_ctrls.bw_read::cpu04.inst           856900                       # Total read bandwidth from this memory (bytes/s)
system.mem_ctrls.bw_read::cpu04.data          4189290                       # Total read bandwidth from this memory (bytes/s)
system.mem_ctrls.bw_read::cpu05.inst            95211                       # Total read bandwidth from this memory (bytes/s)
system.mem_ctrls.bw_read::cpu05.data          3903657                       # Total read bandwidth from this memory (bytes/s)
system.mem_ctrls.bw_read::cpu06.inst           523661                       # Total read bandwidth from this memory (bytes/s)
system.mem_ctrls.bw_read::cpu06.data          4379712                       # Total read bandwidth from this memory (bytes/s)
system.mem_ctrls.bw_read::cpu07.inst           904506                       # Total read bandwidth from this memory (bytes/s)
system.mem_ctrls.bw_read::cpu07.data          4570135                       # Total read bandwidth from this memory (bytes/s)
system.mem_ctrls.bw_read::cpu08.inst           476056                       # Total read bandwidth from this memory (bytes/s)
system.mem_ctrls.bw_read::cpu08.data          4236896                       # Total read bandwidth from this memory (bytes/s)
system.mem_ctrls.bw_read::cpu09.inst           618872                       # Total read bandwidth from this memory (bytes/s)
system.mem_ctrls.bw_read::cpu09.data          5903090                       # Total read bandwidth from this memory (bytes/s)
system.mem_ctrls.bw_read::cpu10.inst          1142534                       # Total read bandwidth from this memory (bytes/s)
system.mem_ctrls.bw_read::cpu10.data          4903374                       # Total read bandwidth from this memory (bytes/s)
system.mem_ctrls.bw_read::cpu11.inst           809295                       # Total read bandwidth from this memory (bytes/s)
system.mem_ctrls.bw_read::cpu11.data          4379712                       # Total read bandwidth from this memory (bytes/s)
system.mem_ctrls.bw_read::cpu12.inst          3189573                       # Total read bandwidth from this memory (bytes/s)
system.mem_ctrls.bw_read::cpu12.data          4332107                       # Total read bandwidth from this memory (bytes/s)
system.mem_ctrls.bw_read::cpu13.inst          1332956                       # Total read bandwidth from this memory (bytes/s)
system.mem_ctrls.bw_read::cpu13.data          4236896                       # Total read bandwidth from this memory (bytes/s)
system.mem_ctrls.bw_read::cpu14.inst           238028                       # Total read bandwidth from this memory (bytes/s)
system.mem_ctrls.bw_read::cpu14.data          4236896                       # Total read bandwidth from this memory (bytes/s)
system.mem_ctrls.bw_read::cpu15.inst          3046756                       # Total read bandwidth from this memory (bytes/s)
system.mem_ctrls.bw_read::cpu15.data          3903657                       # Total read bandwidth from this memory (bytes/s)
system.mem_ctrls.bw_read::total             464344715                       # Total read bandwidth from this memory (bytes/s)
system.mem_ctrls.bw_inst_read::cpu00.inst     91735930                       # Instruction read bandwidth from this memory (bytes/s)
system.mem_ctrls.bw_inst_read::cpu01.inst      8807030                       # Instruction read bandwidth from this memory (bytes/s)
system.mem_ctrls.bw_inst_read::cpu02.inst      1094928                       # Instruction read bandwidth from this memory (bytes/s)
system.mem_ctrls.bw_inst_read::cpu03.inst       666478                       # Instruction read bandwidth from this memory (bytes/s)
system.mem_ctrls.bw_inst_read::cpu04.inst       856900                       # Instruction read bandwidth from this memory (bytes/s)
system.mem_ctrls.bw_inst_read::cpu05.inst        95211                       # Instruction read bandwidth from this memory (bytes/s)
system.mem_ctrls.bw_inst_read::cpu06.inst       523661                       # Instruction read bandwidth from this memory (bytes/s)
system.mem_ctrls.bw_inst_read::cpu07.inst       904506                       # Instruction read bandwidth from this memory (bytes/s)
system.mem_ctrls.bw_inst_read::cpu08.inst       476056                       # Instruction read bandwidth from this memory (bytes/s)
system.mem_ctrls.bw_inst_read::cpu09.inst       618872                       # Instruction read bandwidth from this memory (bytes/s)
system.mem_ctrls.bw_inst_read::cpu10.inst      1142534                       # Instruction read bandwidth from this memory (bytes/s)
system.mem_ctrls.bw_inst_read::cpu11.inst       809295                       # Instruction read bandwidth from this memory (bytes/s)
system.mem_ctrls.bw_inst_read::cpu12.inst      3189573                       # Instruction read bandwidth from this memory (bytes/s)
system.mem_ctrls.bw_inst_read::cpu13.inst      1332956                       # Instruction read bandwidth from this memory (bytes/s)
system.mem_ctrls.bw_inst_read::cpu14.inst       238028                       # Instruction read bandwidth from this memory (bytes/s)
system.mem_ctrls.bw_inst_read::cpu15.inst      3046756                       # Instruction read bandwidth from this memory (bytes/s)
system.mem_ctrls.bw_inst_read::total        115538715                       # Instruction read bandwidth from this memory (bytes/s)
system.mem_ctrls.bw_write::writebacks        55984148                       # Write bandwidth from this memory (bytes/s)
system.mem_ctrls.bw_write::total             55984148                       # Write bandwidth from this memory (bytes/s)
system.mem_ctrls.bw_total::writebacks        55984148                       # Total bandwidth to/from this memory (bytes/s)
system.mem_ctrls.bw_total::cpu00.inst        91735930                       # Total bandwidth to/from this memory (bytes/s)
system.mem_ctrls.bw_total::cpu00.data       281396515                       # Total bandwidth to/from this memory (bytes/s)
system.mem_ctrls.bw_total::cpu01.inst         8807030                       # Total bandwidth to/from this memory (bytes/s)
system.mem_ctrls.bw_total::cpu01.data         5331824                       # Total bandwidth to/from this memory (bytes/s)
system.mem_ctrls.bw_total::cpu02.inst         1094928                       # Total bandwidth to/from this memory (bytes/s)
system.mem_ctrls.bw_total::cpu02.data         5284218                       # Total bandwidth to/from this memory (bytes/s)
system.mem_ctrls.bw_total::cpu03.inst          666478                       # Total bandwidth to/from this memory (bytes/s)
system.mem_ctrls.bw_total::cpu03.data         3618023                       # Total bandwidth to/from this memory (bytes/s)
system.mem_ctrls.bw_total::cpu04.inst          856900                       # Total bandwidth to/from this memory (bytes/s)
system.mem_ctrls.bw_total::cpu04.data         4189290                       # Total bandwidth to/from this memory (bytes/s)
system.mem_ctrls.bw_total::cpu05.inst           95211                       # Total bandwidth to/from this memory (bytes/s)
system.mem_ctrls.bw_total::cpu05.data         3903657                       # Total bandwidth to/from this memory (bytes/s)
system.mem_ctrls.bw_total::cpu06.inst          523661                       # Total bandwidth to/from this memory (bytes/s)
system.mem_ctrls.bw_total::cpu06.data         4379712                       # Total bandwidth to/from this memory (bytes/s)
system.mem_ctrls.bw_total::cpu07.inst          904506                       # Total bandwidth to/from this memory (bytes/s)
system.mem_ctrls.bw_total::cpu07.data         4570135                       # Total bandwidth to/from this memory (bytes/s)
system.mem_ctrls.bw_total::cpu08.inst          476056                       # Total bandwidth to/from this memory (bytes/s)
system.mem_ctrls.bw_total::cpu08.data         4236896                       # Total bandwidth to/from this memory (bytes/s)
system.mem_ctrls.bw_total::cpu09.inst          618872                       # Total bandwidth to/from this memory (bytes/s)
system.mem_ctrls.bw_total::cpu09.data         5903090                       # Total bandwidth to/from this memory (bytes/s)
system.mem_ctrls.bw_total::cpu10.inst         1142534                       # Total bandwidth to/from this memory (bytes/s)
system.mem_ctrls.bw_total::cpu10.data         4903374                       # Total bandwidth to/from this memory (bytes/s)
system.mem_ctrls.bw_total::cpu11.inst          809295                       # Total bandwidth to/from this memory (bytes/s)
system.mem_ctrls.bw_total::cpu11.data         4379712                       # Total bandwidth to/from this memory (bytes/s)
system.mem_ctrls.bw_total::cpu12.inst         3189573                       # Total bandwidth to/from this memory (bytes/s)
system.mem_ctrls.bw_total::cpu12.data         4332107                       # Total bandwidth to/from this memory (bytes/s)
system.mem_ctrls.bw_total::cpu13.inst         1332956                       # Total bandwidth to/from this memory (bytes/s)
system.mem_ctrls.bw_total::cpu13.data         4236896                       # Total bandwidth to/from this memory (bytes/s)
system.mem_ctrls.bw_total::cpu14.inst          238028                       # Total bandwidth to/from this memory (bytes/s)
system.mem_ctrls.bw_total::cpu14.data         4236896                       # Total bandwidth to/from this memory (bytes/s)
system.mem_ctrls.bw_total::cpu15.inst         3046756                       # Total bandwidth to/from this memory (bytes/s)
system.mem_ctrls.bw_total::cpu15.data         3903657                       # Total bandwidth to/from this memory (bytes/s)
system.mem_ctrls.bw_total::total            520328863                       # Total bandwidth to/from this memory (bytes/s)
system.cpu00.branchPred.lookups                132400                       # Number of BP lookups
system.cpu00.branchPred.condPredicted           73715                       # Number of conditional branches predicted
system.cpu00.branchPred.condIncorrect            5644                       # Number of conditional branches incorrect
system.cpu00.branchPred.BTBLookups              88850                       # Number of BTB lookups
system.cpu00.branchPred.BTBHits                 66313                       # Number of BTB hits
system.cpu00.branchPred.BTBCorrect                  0                       # Number of correct BTB predictions (this stat may not work properly.
system.cpu00.branchPred.BTBHitPct           74.634778                       # BTB Hit Percentage
system.cpu00.branchPred.usedRAS                 26434                       # Number of times the RAS was used to get a target.
system.cpu00.branchPred.RASInCorrect               79                       # Number of incorrect RAS predictions.
system.cpu00.branchPred.indirectLookups          3629                       # Number of indirect predictor lookups.
system.cpu00.branchPred.indirectHits             2885                       # Number of indirect target hits.
system.cpu00.branchPred.indirectMisses            744                       # Number of indirect misses.
system.cpu00.branchPredindirectMispredicted          253                       # Number of mispredicted indirect branches.
system.cpu_voltage_domain.voltage                   1                       # Voltage in Volts
system.cpu_clk_domain.clock                      1242                       # Clock period in ticks
system.cpu00.dtb.fetch_hits                         0                       # ITB hits
system.cpu00.dtb.fetch_misses                       0                       # ITB misses
system.cpu00.dtb.fetch_acv                          0                       # ITB acv
system.cpu00.dtb.fetch_accesses                     0                       # ITB accesses
system.cpu00.dtb.read_hits                     179534                       # DTB read hits
system.cpu00.dtb.read_misses                      642                       # DTB read misses
system.cpu00.dtb.read_acv                           0                       # DTB read access violations
system.cpu00.dtb.read_accesses                 180176                       # DTB read accesses
system.cpu00.dtb.write_hits                    127700                       # DTB write hits
system.cpu00.dtb.write_misses                    1053                       # DTB write misses
system.cpu00.dtb.write_acv                          0                       # DTB write access violations
system.cpu00.dtb.write_accesses                128753                       # DTB write accesses
system.cpu00.dtb.data_hits                     307234                       # DTB hits
system.cpu00.dtb.data_misses                     1695                       # DTB misses
system.cpu00.dtb.data_acv                           0                       # DTB access violations
system.cpu00.dtb.data_accesses                 308929                       # DTB accesses
system.cpu00.itb.fetch_hits                    148975                       # ITB hits
system.cpu00.itb.fetch_misses                     155                       # ITB misses
system.cpu00.itb.fetch_acv                          0                       # ITB acv
system.cpu00.itb.fetch_accesses                149130                       # ITB accesses
system.cpu00.itb.read_hits                          0                       # DTB read hits
system.cpu00.itb.read_misses                        0                       # DTB read misses
system.cpu00.itb.read_acv                           0                       # DTB read access violations
system.cpu00.itb.read_accesses                      0                       # DTB read accesses
system.cpu00.itb.write_hits                         0                       # DTB write hits
system.cpu00.itb.write_misses                       0                       # DTB write misses
system.cpu00.itb.write_acv                          0                       # DTB write access violations
system.cpu00.itb.write_accesses                     0                       # DTB write accesses
system.cpu00.itb.data_hits                          0                       # DTB hits
system.cpu00.itb.data_misses                        0                       # DTB misses
system.cpu00.itb.data_acv                           0                       # DTB access violations
system.cpu00.itb.data_accesses                      0                       # DTB accesses
system.cpu00.workload.num_syscalls               4410                       # Number of system calls
system.cpu00.numCycles                         972605                       # number of cpu cycles simulated
system.cpu00.numWorkItemsStarted                    0                       # number of work items this cpu started
system.cpu00.numWorkItemsCompleted                  0                       # number of work items this cpu completed
system.cpu00.fetch.icacheStallCycles            76136                       # Number of cycles fetch is stalled on an Icache miss
system.cpu00.fetch.Insts                      1188658                       # Number of instructions fetch has processed
system.cpu00.fetch.Branches                    132400                       # Number of branches that fetch encountered
system.cpu00.fetch.predictedBranches            95632                       # Number of branches that fetch has predicted taken
system.cpu00.fetch.Cycles                      692540                       # Number of cycles fetch has run and was not squashing or blocked
system.cpu00.fetch.SquashCycles                 12638                       # Number of cycles fetch has spent squashing
system.cpu00.fetch.MiscStallCycles                484                       # Number of cycles fetch has spent waiting on interrupts, or bad addresses, or out of MSHRs
system.cpu00.fetch.PendingTrapStallCycles         5915                       # Number of stall cycles due to pending traps
system.cpu00.fetch.IcacheWaitRetryStallCycles          551                       # Number of stall cycles due to full MSHR
system.cpu00.fetch.CacheLines                  148975                       # Number of cache lines fetched
system.cpu00.fetch.IcacheSquashes                2526                       # Number of outstanding Icache misses that were squashed
system.cpu00.fetch.rateDist::samples           781945                       # Number of instructions fetched each cycle (Total)
system.cpu00.fetch.rateDist::mean            1.520130                       # Number of instructions fetched each cycle (Total)
system.cpu00.fetch.rateDist::stdev           2.765999                       # Number of instructions fetched each cycle (Total)
system.cpu00.fetch.rateDist::underflows             0      0.00%      0.00% # Number of instructions fetched each cycle (Total)
system.cpu00.fetch.rateDist::0                 564629     72.21%     72.21% # Number of instructions fetched each cycle (Total)
system.cpu00.fetch.rateDist::1                  16357      2.09%     74.30% # Number of instructions fetched each cycle (Total)
system.cpu00.fetch.rateDist::2                  17324      2.22%     76.52% # Number of instructions fetched each cycle (Total)
system.cpu00.fetch.rateDist::3                  16835      2.15%     78.67% # Number of instructions fetched each cycle (Total)
system.cpu00.fetch.rateDist::4                  37856      4.84%     83.51% # Number of instructions fetched each cycle (Total)
system.cpu00.fetch.rateDist::5                  15666      2.00%     85.51% # Number of instructions fetched each cycle (Total)
system.cpu00.fetch.rateDist::6                  18759      2.40%     87.91% # Number of instructions fetched each cycle (Total)
system.cpu00.fetch.rateDist::7                  11312      1.45%     89.36% # Number of instructions fetched each cycle (Total)
system.cpu00.fetch.rateDist::8                  83207     10.64%    100.00% # Number of instructions fetched each cycle (Total)
system.cpu00.fetch.rateDist::overflows              0      0.00%    100.00% # Number of instructions fetched each cycle (Total)
system.cpu00.fetch.rateDist::min_value              0                       # Number of instructions fetched each cycle (Total)
system.cpu00.fetch.rateDist::max_value              8                       # Number of instructions fetched each cycle (Total)
system.cpu00.fetch.rateDist::total             781945                       # Number of instructions fetched each cycle (Total)
system.cpu00.fetch.branchRate                0.136129                       # Number of branch fetches per cycle
system.cpu00.fetch.rate                      1.222138                       # Number of inst fetches per cycle
system.cpu00.decode.IdleCycles                  84717                       # Number of cycles decode is idle
system.cpu00.decode.BlockedCycles              529744                       # Number of cycles decode is blocked
system.cpu00.decode.RunCycles                  130153                       # Number of cycles decode is running
system.cpu00.decode.UnblockCycles               32751                       # Number of cycles decode is unblocking
system.cpu00.decode.SquashCycles                 4580                       # Number of cycles decode is squashing
system.cpu00.decode.BranchResolved              26495                       # Number of times decode resolved a branch
system.cpu00.decode.BranchMispred                1791                       # Number of times decode detected a branch misprediction
system.cpu00.decode.DecodedInsts              1124819                       # Number of instructions handled by decode
system.cpu00.decode.SquashedInsts                7313                       # Number of squashed instructions handled by decode
system.cpu00.rename.SquashCycles                 4580                       # Number of cycles rename is squashing
system.cpu00.rename.IdleCycles                 100428                       # Number of cycles rename is idle
system.cpu00.rename.BlockCycles                 79394                       # Number of cycles rename is blocking
system.cpu00.rename.serializeStallCycles       212349                       # count of cycles rename stalled for serializing inst
system.cpu00.rename.RunCycles                  147327                       # Number of cycles rename is running
system.cpu00.rename.UnblockCycles              237867                       # Number of cycles rename is unblocking
system.cpu00.rename.RenamedInsts              1105369                       # Number of instructions processed by rename
system.cpu00.rename.ROBFullEvents                2655                       # Number of times rename has blocked due to ROB full
system.cpu00.rename.IQFullEvents                22095                       # Number of times rename has blocked due to IQ full
system.cpu00.rename.LQFullEvents                 1910                       # Number of times rename has blocked due to LQ full
system.cpu00.rename.SQFullEvents               203520                       # Number of times rename has blocked due to SQ full
system.cpu00.rename.RenamedOperands            757655                       # Number of destination operands rename has renamed
system.cpu00.rename.RenameLookups             1368801                       # Number of register rename lookups that rename has made
system.cpu00.rename.int_rename_lookups        1210705                       # Number of integer rename lookups
system.cpu00.rename.fp_rename_lookups          155809                       # Number of floating rename lookups
system.cpu00.rename.CommittedMaps              668969                       # Number of HB maps that are committed
system.cpu00.rename.UndoneMaps                  88686                       # Number of HB maps that are undone due to squashing
system.cpu00.rename.serializingInsts             4019                       # count of serializing insts renamed
system.cpu00.rename.tempSerializingInsts         1655                       # count of temporary serializing insts renamed
system.cpu00.rename.skidInsts                  146069                       # count of insts added to the skid buffer
system.cpu00.memDep0.insertedLoads             179279                       # Number of loads inserted to the mem dependence unit.
system.cpu00.memDep0.insertedStores            135285                       # Number of stores inserted to the mem dependence unit.
system.cpu00.memDep0.conflictingLoads           31938                       # Number of conflicting loads.
system.cpu00.memDep0.conflictingStores          11966                       # Number of conflicting stores.
system.cpu00.iq.iqInstsAdded                   967934                       # Number of instructions added to the IQ (excludes non-spec)
system.cpu00.iq.iqNonSpecInstsAdded              2752                       # Number of non-speculative instructions added to the IQ
system.cpu00.iq.iqInstsIssued                  950355                       # Number of instructions issued
system.cpu00.iq.iqSquashedInstsIssued            1673                       # Number of squashed instructions issued
system.cpu00.iq.iqSquashedInstsExamined        100607                       # Number of squashed instructions iterated over during squash; mainly for profiling
system.cpu00.iq.iqSquashedOperandsExamined        50580                       # Number of squashed operands that are examined and possibly removed from graph
system.cpu00.iq.iqSquashedNonSpecRemoved          374                       # Number of squashed non-spec instructions that were removed
system.cpu00.iq.issued_per_cycle::samples       781945                       # Number of insts issued each cycle
system.cpu00.iq.issued_per_cycle::mean       1.215373                       # Number of insts issued each cycle
system.cpu00.iq.issued_per_cycle::stdev      1.968284                       # Number of insts issued each cycle
system.cpu00.iq.issued_per_cycle::underflows            0      0.00%      0.00% # Number of insts issued each cycle
system.cpu00.iq.issued_per_cycle::0            486572     62.23%     62.23% # Number of insts issued each cycle
system.cpu00.iq.issued_per_cycle::1             72193      9.23%     71.46% # Number of insts issued each cycle
system.cpu00.iq.issued_per_cycle::2             60099      7.69%     79.14% # Number of insts issued each cycle
system.cpu00.iq.issued_per_cycle::3             44655      5.71%     84.85% # Number of insts issued each cycle
system.cpu00.iq.issued_per_cycle::4             43037      5.50%     90.36% # Number of insts issued each cycle
system.cpu00.iq.issued_per_cycle::5             28589      3.66%     94.01% # Number of insts issued each cycle
system.cpu00.iq.issued_per_cycle::6             26904      3.44%     97.46% # Number of insts issued each cycle
system.cpu00.iq.issued_per_cycle::7             11686      1.49%     98.95% # Number of insts issued each cycle
system.cpu00.iq.issued_per_cycle::8              8210      1.05%    100.00% # Number of insts issued each cycle
system.cpu00.iq.issued_per_cycle::overflows            0      0.00%    100.00% # Number of insts issued each cycle
system.cpu00.iq.issued_per_cycle::min_value            0                       # Number of insts issued each cycle
system.cpu00.iq.issued_per_cycle::max_value            8                       # Number of insts issued each cycle
system.cpu00.iq.issued_per_cycle::total        781945                       # Number of insts issued each cycle
system.cpu00.iq.fu_full::No_OpClass                 0      0.00%      0.00% # attempts to use FU when none available
system.cpu00.iq.fu_full::IntAlu                  4989     16.29%     16.29% # attempts to use FU when none available
system.cpu00.iq.fu_full::IntMult                 4097     13.38%     29.66% # attempts to use FU when none available
system.cpu00.iq.fu_full::IntDiv                     0      0.00%     29.66% # attempts to use FU when none available
system.cpu00.iq.fu_full::FloatAdd                  89      0.29%     29.95% # attempts to use FU when none available
system.cpu00.iq.fu_full::FloatCmp                   0      0.00%     29.95% # attempts to use FU when none available
system.cpu00.iq.fu_full::FloatCvt                   0      0.00%     29.95% # attempts to use FU when none available
system.cpu00.iq.fu_full::FloatMult               5900     19.26%     49.21% # attempts to use FU when none available
system.cpu00.iq.fu_full::FloatDiv                   0      0.00%     49.21% # attempts to use FU when none available
system.cpu00.iq.fu_full::FloatSqrt                  0      0.00%     49.21% # attempts to use FU when none available
system.cpu00.iq.fu_full::SimdAdd                    0      0.00%     49.21% # attempts to use FU when none available
system.cpu00.iq.fu_full::SimdAddAcc                 0      0.00%     49.21% # attempts to use FU when none available
system.cpu00.iq.fu_full::SimdAlu                    0      0.00%     49.21% # attempts to use FU when none available
system.cpu00.iq.fu_full::SimdCmp                    0      0.00%     49.21% # attempts to use FU when none available
system.cpu00.iq.fu_full::SimdCvt                    0      0.00%     49.21% # attempts to use FU when none available
system.cpu00.iq.fu_full::SimdMisc                   0      0.00%     49.21% # attempts to use FU when none available
system.cpu00.iq.fu_full::SimdMult                   0      0.00%     49.21% # attempts to use FU when none available
system.cpu00.iq.fu_full::SimdMultAcc                0      0.00%     49.21% # attempts to use FU when none available
system.cpu00.iq.fu_full::SimdShift                  0      0.00%     49.21% # attempts to use FU when none available
system.cpu00.iq.fu_full::SimdShiftAcc               0      0.00%     49.21% # attempts to use FU when none available
system.cpu00.iq.fu_full::SimdSqrt                   0      0.00%     49.21% # attempts to use FU when none available
system.cpu00.iq.fu_full::SimdFloatAdd               0      0.00%     49.21% # attempts to use FU when none available
system.cpu00.iq.fu_full::SimdFloatAlu               0      0.00%     49.21% # attempts to use FU when none available
system.cpu00.iq.fu_full::SimdFloatCmp               0      0.00%     49.21% # attempts to use FU when none available
system.cpu00.iq.fu_full::SimdFloatCvt               0      0.00%     49.21% # attempts to use FU when none available
system.cpu00.iq.fu_full::SimdFloatDiv               0      0.00%     49.21% # attempts to use FU when none available
system.cpu00.iq.fu_full::SimdFloatMisc              0      0.00%     49.21% # attempts to use FU when none available
system.cpu00.iq.fu_full::SimdFloatMult              0      0.00%     49.21% # attempts to use FU when none available
system.cpu00.iq.fu_full::SimdFloatMultAcc            0      0.00%     49.21% # attempts to use FU when none available
system.cpu00.iq.fu_full::SimdFloatSqrt              0      0.00%     49.21% # attempts to use FU when none available
system.cpu00.iq.fu_full::MemRead                 9504     31.03%     80.24% # attempts to use FU when none available
system.cpu00.iq.fu_full::MemWrite                6052     19.76%    100.00% # attempts to use FU when none available
system.cpu00.iq.fu_full::IprAccess                  0      0.00%    100.00% # attempts to use FU when none available
system.cpu00.iq.fu_full::InstPrefetch               0      0.00%    100.00% # attempts to use FU when none available
system.cpu00.iq.FU_type_0::No_OpClass               0      0.00%      0.00% # Type of FU issued
system.cpu00.iq.FU_type_0::IntAlu              551003     57.98%     57.98% # Type of FU issued
system.cpu00.iq.FU_type_0::IntMult              12785      1.35%     59.32% # Type of FU issued
system.cpu00.iq.FU_type_0::IntDiv                   0      0.00%     59.32% # Type of FU issued
system.cpu00.iq.FU_type_0::FloatAdd             35720      3.76%     63.08% # Type of FU issued
system.cpu00.iq.FU_type_0::FloatCmp                 8      0.00%     63.08% # Type of FU issued
system.cpu00.iq.FU_type_0::FloatCvt                 0      0.00%     63.08% # Type of FU issued
system.cpu00.iq.FU_type_0::FloatMult            37107      3.90%     66.99% # Type of FU issued
system.cpu00.iq.FU_type_0::FloatDiv                16      0.00%     66.99% # Type of FU issued
system.cpu00.iq.FU_type_0::FloatSqrt                0      0.00%     66.99% # Type of FU issued
system.cpu00.iq.FU_type_0::SimdAdd                  0      0.00%     66.99% # Type of FU issued
system.cpu00.iq.FU_type_0::SimdAddAcc               0      0.00%     66.99% # Type of FU issued
system.cpu00.iq.FU_type_0::SimdAlu                  0      0.00%     66.99% # Type of FU issued
system.cpu00.iq.FU_type_0::SimdCmp                  0      0.00%     66.99% # Type of FU issued
system.cpu00.iq.FU_type_0::SimdCvt                  0      0.00%     66.99% # Type of FU issued
system.cpu00.iq.FU_type_0::SimdMisc                 0      0.00%     66.99% # Type of FU issued
system.cpu00.iq.FU_type_0::SimdMult                 0      0.00%     66.99% # Type of FU issued
system.cpu00.iq.FU_type_0::SimdMultAcc              0      0.00%     66.99% # Type of FU issued
system.cpu00.iq.FU_type_0::SimdShift                0      0.00%     66.99% # Type of FU issued
system.cpu00.iq.FU_type_0::SimdShiftAcc             0      0.00%     66.99% # Type of FU issued
system.cpu00.iq.FU_type_0::SimdSqrt                 0      0.00%     66.99% # Type of FU issued
system.cpu00.iq.FU_type_0::SimdFloatAdd             0      0.00%     66.99% # Type of FU issued
system.cpu00.iq.FU_type_0::SimdFloatAlu             0      0.00%     66.99% # Type of FU issued
system.cpu00.iq.FU_type_0::SimdFloatCmp             0      0.00%     66.99% # Type of FU issued
system.cpu00.iq.FU_type_0::SimdFloatCvt             0      0.00%     66.99% # Type of FU issued
system.cpu00.iq.FU_type_0::SimdFloatDiv             0      0.00%     66.99% # Type of FU issued
system.cpu00.iq.FU_type_0::SimdFloatMisc            0      0.00%     66.99% # Type of FU issued
system.cpu00.iq.FU_type_0::SimdFloatMult            0      0.00%     66.99% # Type of FU issued
system.cpu00.iq.FU_type_0::SimdFloatMultAcc            0      0.00%     66.99% # Type of FU issued
system.cpu00.iq.FU_type_0::SimdFloatSqrt            0      0.00%     66.99% # Type of FU issued
system.cpu00.iq.FU_type_0::MemRead             183358     19.29%     86.28% # Type of FU issued
system.cpu00.iq.FU_type_0::MemWrite            130358     13.72%    100.00% # Type of FU issued
system.cpu00.iq.FU_type_0::IprAccess                0      0.00%    100.00% # Type of FU issued
system.cpu00.iq.FU_type_0::InstPrefetch             0      0.00%    100.00% # Type of FU issued
system.cpu00.iq.FU_type_0::total               950355                       # Type of FU issued
system.cpu00.iq.rate                         0.977123                       # Inst issue rate
system.cpu00.iq.fu_busy_cnt                     30631                       # FU busy when requested
system.cpu00.iq.fu_busy_rate                 0.032231                       # FU busy rate (busy events/executed inst)
system.cpu00.iq.int_inst_queue_reads          2471815                       # Number of integer instruction queue reads
system.cpu00.iq.int_inst_queue_writes          948311                       # Number of integer instruction queue writes
system.cpu00.iq.int_inst_queue_wakeup_accesses       813511                       # Number of integer instruction queue wakeup accesses
system.cpu00.iq.fp_inst_queue_reads            243144                       # Number of floating instruction queue reads
system.cpu00.iq.fp_inst_queue_writes           123394                       # Number of floating instruction queue writes
system.cpu00.iq.fp_inst_queue_wakeup_accesses       116951                       # Number of floating instruction queue wakeup accesses
system.cpu00.iq.int_alu_accesses               856089                       # Number of integer alu accesses
system.cpu00.iq.fp_alu_accesses                124897                       # Number of floating point alu accesses
system.cpu00.iew.lsq.thread0.forwLoads          21051                       # Number of loads that had data forwarded from stores
system.cpu00.iew.lsq.thread0.invAddrLoads            0                       # Number of loads ignored due to an invalid address
system.cpu00.iew.lsq.thread0.squashedLoads        18272                       # Number of loads squashed
system.cpu00.iew.lsq.thread0.ignoredResponses           52                       # Number of memory responses ignored because the instruction is squashed
system.cpu00.iew.lsq.thread0.memOrderViolation          419                       # Number of memory ordering violations
system.cpu00.iew.lsq.thread0.squashedStores        15757                       # Number of stores squashed
system.cpu00.iew.lsq.thread0.invAddrSwpfs            0                       # Number of software prefetches ignored due to an invalid address
system.cpu00.iew.lsq.thread0.blockedLoads            0                       # Number of blocked loads due to partial load-store forwarding
system.cpu00.iew.lsq.thread0.rescheduledLoads          224                       # Number of loads that were rescheduled
system.cpu00.iew.lsq.thread0.cacheBlocked         8452                       # Number of times an access to memory failed due to the cache being blocked
system.cpu00.iew.iewIdleCycles                      0                       # Number of cycles IEW is idle
system.cpu00.iew.iewSquashCycles                 4580                       # Number of cycles IEW is squashing
system.cpu00.iew.iewBlockCycles                 21508                       # Number of cycles IEW is blocking
system.cpu00.iew.iewUnblockCycles               51237                       # Number of cycles IEW is unblocking
system.cpu00.iew.iewDispatchedInsts           1078161                       # Number of instructions dispatched to IQ
system.cpu00.iew.iewDispSquashedInsts            1500                       # Number of squashed instructions skipped by dispatch
system.cpu00.iew.iewDispLoadInsts              179279                       # Number of dispatched load instructions
system.cpu00.iew.iewDispStoreInsts             135285                       # Number of dispatched store instructions
system.cpu00.iew.iewDispNonSpecInsts             1575                       # Number of dispatched non-speculative instructions
system.cpu00.iew.iewIQFullEvents                  103                       # Number of times the IQ has become full, causing a stall
system.cpu00.iew.iewLSQFullEvents               51044                       # Number of times the LSQ has become full, causing a stall
system.cpu00.iew.memOrderViolationEvents          419                       # Number of memory order violations
system.cpu00.iew.predictedTakenIncorrect         1537                       # Number of branches that were predicted taken incorrectly
system.cpu00.iew.predictedNotTakenIncorrect         3123                       # Number of branches that were predicted not taken incorrectly
system.cpu00.iew.branchMispredicts               4660                       # Number of branch mispredicts detected at execute
system.cpu00.iew.iewExecutedInsts              942722                       # Number of executed instructions
system.cpu00.iew.iewExecLoadInsts              180191                       # Number of load instructions executed
system.cpu00.iew.iewExecSquashedInsts            7633                       # Number of squashed instructions skipped in execute
system.cpu00.iew.exec_swp                           0                       # number of swp insts executed
system.cpu00.iew.exec_nop                      107475                       # number of nop insts executed
system.cpu00.iew.exec_refs                     308952                       # number of memory reference insts executed
system.cpu00.iew.exec_branches                 110313                       # Number of branches executed
system.cpu00.iew.exec_stores                   128761                       # Number of stores executed
system.cpu00.iew.exec_rate                   0.969275                       # Inst execution rate
system.cpu00.iew.wb_sent                       934075                       # cumulative count of insts sent to commit
system.cpu00.iew.wb_count                      930462                       # cumulative count of insts written-back
system.cpu00.iew.wb_producers                  545788                       # num instructions producing a value
system.cpu00.iew.wb_consumers                  777756                       # num instructions consuming a value
system.cpu00.iew.wb_rate                     0.956670                       # insts written-back per cycle
system.cpu00.iew.wb_fanout                   0.701747                       # average fanout of values written-back
system.cpu00.commit.commitSquashedInsts        104307                       # The number of squashed insts skipped by commit
system.cpu00.commit.commitNonSpecStalls          2378                       # The number of times commit has been forced to stall to communicate backwards
system.cpu00.commit.branchMispredicts            3905                       # The number of times a branch was mispredicted
system.cpu00.commit.committed_per_cycle::samples       765650                       # Number of insts commited each cycle
system.cpu00.commit.committed_per_cycle::mean     1.265252                       # Number of insts commited each cycle
system.cpu00.commit.committed_per_cycle::stdev     2.344768                       # Number of insts commited each cycle
system.cpu00.commit.committed_per_cycle::underflows            0      0.00%      0.00% # Number of insts commited each cycle
system.cpu00.commit.committed_per_cycle::0       517567     67.60%     67.60% # Number of insts commited each cycle
system.cpu00.commit.committed_per_cycle::1        51341      6.71%     74.30% # Number of insts commited each cycle
system.cpu00.commit.committed_per_cycle::2        51206      6.69%     80.99% # Number of insts commited each cycle
system.cpu00.commit.committed_per_cycle::3        30019      3.92%     84.91% # Number of insts commited each cycle
system.cpu00.commit.committed_per_cycle::4        35380      4.62%     89.53% # Number of insts commited each cycle
system.cpu00.commit.committed_per_cycle::5         8908      1.16%     90.70% # Number of insts commited each cycle
system.cpu00.commit.committed_per_cycle::6        12924      1.69%     92.38% # Number of insts commited each cycle
system.cpu00.commit.committed_per_cycle::7         5114      0.67%     93.05% # Number of insts commited each cycle
system.cpu00.commit.committed_per_cycle::8        53191      6.95%    100.00% # Number of insts commited each cycle
system.cpu00.commit.committed_per_cycle::overflows            0      0.00%    100.00% # Number of insts commited each cycle
system.cpu00.commit.committed_per_cycle::min_value            0                       # Number of insts commited each cycle
system.cpu00.commit.committed_per_cycle::max_value            8                       # Number of insts commited each cycle
system.cpu00.commit.committed_per_cycle::total       765650                       # Number of insts commited each cycle
system.cpu00.commit.committedInsts             968740                       # Number of instructions committed
system.cpu00.commit.committedOps               968740                       # Number of ops (including micro ops) committed
system.cpu00.commit.swp_count                       0                       # Number of s/w prefetches committed
system.cpu00.commit.refs                       280535                       # Number of memory references committed
system.cpu00.commit.loads                      161007                       # Number of loads committed
system.cpu00.commit.membars                      1038                       # Number of memory barriers committed
system.cpu00.commit.branches                   100164                       # Number of branches committed
system.cpu00.commit.fp_insts                   116058                       # Number of committed floating point instructions.
system.cpu00.commit.int_insts                  792204                       # Number of committed integer instructions.
system.cpu00.commit.function_calls              22224                       # Number of function calls committed.
system.cpu00.commit.op_class_0::No_OpClass        98662     10.18%     10.18% # Class of committed instruction
system.cpu00.commit.op_class_0::IntAlu         503378     51.96%     62.15% # Class of committed instruction
system.cpu00.commit.op_class_0::IntMult         12689      1.31%     63.46% # Class of committed instruction
system.cpu00.commit.op_class_0::IntDiv              0      0.00%     63.46% # Class of committed instruction
system.cpu00.commit.op_class_0::FloatAdd        35480      3.66%     67.12% # Class of committed instruction
system.cpu00.commit.op_class_0::FloatCmp            8      0.00%     67.12% # Class of committed instruction
system.cpu00.commit.op_class_0::FloatCvt            0      0.00%     67.12% # Class of committed instruction
system.cpu00.commit.op_class_0::FloatMult        36935      3.81%     70.93% # Class of committed instruction
system.cpu00.commit.op_class_0::FloatDiv           14      0.00%     70.93% # Class of committed instruction
system.cpu00.commit.op_class_0::FloatSqrt            0      0.00%     70.93% # Class of committed instruction
system.cpu00.commit.op_class_0::SimdAdd             0      0.00%     70.93% # Class of committed instruction
system.cpu00.commit.op_class_0::SimdAddAcc            0      0.00%     70.93% # Class of committed instruction
system.cpu00.commit.op_class_0::SimdAlu             0      0.00%     70.93% # Class of committed instruction
system.cpu00.commit.op_class_0::SimdCmp             0      0.00%     70.93% # Class of committed instruction
system.cpu00.commit.op_class_0::SimdCvt             0      0.00%     70.93% # Class of committed instruction
system.cpu00.commit.op_class_0::SimdMisc            0      0.00%     70.93% # Class of committed instruction
system.cpu00.commit.op_class_0::SimdMult            0      0.00%     70.93% # Class of committed instruction
system.cpu00.commit.op_class_0::SimdMultAcc            0      0.00%     70.93% # Class of committed instruction
system.cpu00.commit.op_class_0::SimdShift            0      0.00%     70.93% # Class of committed instruction
system.cpu00.commit.op_class_0::SimdShiftAcc            0      0.00%     70.93% # Class of committed instruction
system.cpu00.commit.op_class_0::SimdSqrt            0      0.00%     70.93% # Class of committed instruction
system.cpu00.commit.op_class_0::SimdFloatAdd            0      0.00%     70.93% # Class of committed instruction
system.cpu00.commit.op_class_0::SimdFloatAlu            0      0.00%     70.93% # Class of committed instruction
system.cpu00.commit.op_class_0::SimdFloatCmp            0      0.00%     70.93% # Class of committed instruction
system.cpu00.commit.op_class_0::SimdFloatCvt            0      0.00%     70.93% # Class of committed instruction
system.cpu00.commit.op_class_0::SimdFloatDiv            0      0.00%     70.93% # Class of committed instruction
system.cpu00.commit.op_class_0::SimdFloatMisc            0      0.00%     70.93% # Class of committed instruction
system.cpu00.commit.op_class_0::SimdFloatMult            0      0.00%     70.93% # Class of committed instruction
system.cpu00.commit.op_class_0::SimdFloatMultAcc            0      0.00%     70.93% # Class of committed instruction
system.cpu00.commit.op_class_0::SimdFloatSqrt            0      0.00%     70.93% # Class of committed instruction
system.cpu00.commit.op_class_0::MemRead        162045     16.73%     87.66% # Class of committed instruction
system.cpu00.commit.op_class_0::MemWrite       119529     12.34%    100.00% # Class of committed instruction
system.cpu00.commit.op_class_0::IprAccess            0      0.00%    100.00% # Class of committed instruction
system.cpu00.commit.op_class_0::InstPrefetch            0      0.00%    100.00% # Class of committed instruction
system.cpu00.commit.op_class_0::total          968740                       # Class of committed instruction
system.cpu00.commit.bw_lim_events               53191                       # number cycles where commit BW limit reached
system.cpu00.rob.rob_reads                    1781528                       # The number of ROB reads
system.cpu00.rob.rob_writes                   2162511                       # The number of ROB writes
system.cpu00.timesIdled                          1448                       # Number of times that the entire CPU went into an idle state and unscheduled itself
system.cpu00.idleCycles                        190660                       # Total number of cycles that the CPU has spent unscheduled due to idling
system.cpu00.quiesceCycles                     109828                       # Total number of cycles that CPU has spent quiesced or waiting for an interrupt
system.cpu00.committedInsts                    870078                       # Number of Instructions Simulated
system.cpu00.committedOps                      870078                       # Number of Ops (including micro ops) Simulated
system.cpu00.cpi                             1.117837                       # CPI: Cycles Per Instruction
system.cpu00.cpi_total                       1.117837                       # CPI: Total CPI of All Threads
system.cpu00.ipc                             0.894585                       # IPC: Instructions Per Cycle
system.cpu00.ipc_total                       0.894585                       # IPC: Total IPC of All Threads
system.cpu00.int_regfile_reads                1138899                       # number of integer regfile reads
system.cpu00.int_regfile_writes                612687                       # number of integer regfile writes
system.cpu00.fp_regfile_reads                  151787                       # number of floating regfile reads
system.cpu00.fp_regfile_writes                 102897                       # number of floating regfile writes
system.cpu00.misc_regfile_reads                  5091                       # number of misc regfile reads
system.cpu00.misc_regfile_writes                 2255                       # number of misc regfile writes
system.cpu00.dcache.tags.replacements           11266                       # number of replacements
system.cpu00.dcache.tags.tagsinuse         124.377576                       # Cycle average of tags in use
system.cpu00.dcache.tags.total_refs            229925                       # Total number of references to valid blocks.
system.cpu00.dcache.tags.sampled_refs           11394                       # Sample count of references to valid blocks.
system.cpu00.dcache.tags.avg_refs           20.179480                       # Average number of references to valid blocks.
system.cpu00.dcache.tags.warmup_cycle        85412340                       # Cycle when the warmup percentage was hit.
system.cpu00.dcache.tags.occ_blocks::cpu00.data   124.377576                       # Average occupied blocks per requestor
system.cpu00.dcache.tags.occ_percent::cpu00.data     0.971700                       # Average percentage of cache occupancy
system.cpu00.dcache.tags.occ_percent::total     0.971700                       # Average percentage of cache occupancy
system.cpu00.dcache.tags.occ_task_id_blocks::1024          128                       # Occupied blocks per task id
system.cpu00.dcache.tags.age_task_id_blocks_1024::0           57                       # Occupied blocks per task id
system.cpu00.dcache.tags.age_task_id_blocks_1024::1           62                       # Occupied blocks per task id
system.cpu00.dcache.tags.age_task_id_blocks_1024::2            9                       # Occupied blocks per task id
system.cpu00.dcache.tags.occ_task_id_percent::1024            1                       # Percentage of cache occupancy per task id
system.cpu00.dcache.tags.tag_accesses         1096596                       # Number of tag accesses
system.cpu00.dcache.tags.data_accesses        1096596                       # Number of data accesses
system.cpu00.dcache.ReadReq_hits::cpu00.data       142332                       # number of ReadReq hits
system.cpu00.dcache.ReadReq_hits::total        142332                       # number of ReadReq hits
system.cpu00.dcache.WriteReq_hits::cpu00.data        85382                       # number of WriteReq hits
system.cpu00.dcache.WriteReq_hits::total        85382                       # number of WriteReq hits
system.cpu00.dcache.LoadLockedReq_hits::cpu00.data          952                       # number of LoadLockedReq hits
system.cpu00.dcache.LoadLockedReq_hits::total          952                       # number of LoadLockedReq hits
system.cpu00.dcache.StoreCondReq_hits::cpu00.data         1101                       # number of StoreCondReq hits
system.cpu00.dcache.StoreCondReq_hits::total         1101                       # number of StoreCondReq hits
system.cpu00.dcache.demand_hits::cpu00.data       227714                       # number of demand (read+write) hits
system.cpu00.dcache.demand_hits::total         227714                       # number of demand (read+write) hits
system.cpu00.dcache.overall_hits::cpu00.data       227714                       # number of overall hits
system.cpu00.dcache.overall_hits::total        227714                       # number of overall hits
system.cpu00.dcache.ReadReq_misses::cpu00.data         8166                       # number of ReadReq misses
system.cpu00.dcache.ReadReq_misses::total         8166                       # number of ReadReq misses
system.cpu00.dcache.WriteReq_misses::cpu00.data        33022                       # number of WriteReq misses
system.cpu00.dcache.WriteReq_misses::total        33022                       # number of WriteReq misses
system.cpu00.dcache.LoadLockedReq_misses::cpu00.data          251                       # number of LoadLockedReq misses
system.cpu00.dcache.LoadLockedReq_misses::total          251                       # number of LoadLockedReq misses
system.cpu00.dcache.StoreCondReq_misses::cpu00.data           22                       # number of StoreCondReq misses
system.cpu00.dcache.StoreCondReq_misses::total           22                       # number of StoreCondReq misses
system.cpu00.dcache.demand_misses::cpu00.data        41188                       # number of demand (read+write) misses
system.cpu00.dcache.demand_misses::total        41188                       # number of demand (read+write) misses
system.cpu00.dcache.overall_misses::cpu00.data        41188                       # number of overall misses
system.cpu00.dcache.overall_misses::total        41188                       # number of overall misses
system.cpu00.dcache.ReadReq_miss_latency::cpu00.data    399696714                       # number of ReadReq miss cycles
system.cpu00.dcache.ReadReq_miss_latency::total    399696714                       # number of ReadReq miss cycles
system.cpu00.dcache.WriteReq_miss_latency::cpu00.data   5365909111                       # number of WriteReq miss cycles
system.cpu00.dcache.WriteReq_miss_latency::total   5365909111                       # number of WriteReq miss cycles
system.cpu00.dcache.LoadLockedReq_miss_latency::cpu00.data      2471580                       # number of LoadLockedReq miss cycles
system.cpu00.dcache.LoadLockedReq_miss_latency::total      2471580                       # number of LoadLockedReq miss cycles
system.cpu00.dcache.StoreCondReq_miss_latency::cpu00.data       466992                       # number of StoreCondReq miss cycles
system.cpu00.dcache.StoreCondReq_miss_latency::total       466992                       # number of StoreCondReq miss cycles
system.cpu00.dcache.demand_miss_latency::cpu00.data   5765605825                       # number of demand (read+write) miss cycles
system.cpu00.dcache.demand_miss_latency::total   5765605825                       # number of demand (read+write) miss cycles
system.cpu00.dcache.overall_miss_latency::cpu00.data   5765605825                       # number of overall miss cycles
system.cpu00.dcache.overall_miss_latency::total   5765605825                       # number of overall miss cycles
system.cpu00.dcache.ReadReq_accesses::cpu00.data       150498                       # number of ReadReq accesses(hits+misses)
system.cpu00.dcache.ReadReq_accesses::total       150498                       # number of ReadReq accesses(hits+misses)
system.cpu00.dcache.WriteReq_accesses::cpu00.data       118404                       # number of WriteReq accesses(hits+misses)
system.cpu00.dcache.WriteReq_accesses::total       118404                       # number of WriteReq accesses(hits+misses)
system.cpu00.dcache.LoadLockedReq_accesses::cpu00.data         1203                       # number of LoadLockedReq accesses(hits+misses)
system.cpu00.dcache.LoadLockedReq_accesses::total         1203                       # number of LoadLockedReq accesses(hits+misses)
system.cpu00.dcache.StoreCondReq_accesses::cpu00.data         1123                       # number of StoreCondReq accesses(hits+misses)
system.cpu00.dcache.StoreCondReq_accesses::total         1123                       # number of StoreCondReq accesses(hits+misses)
system.cpu00.dcache.demand_accesses::cpu00.data       268902                       # number of demand (read+write) accesses
system.cpu00.dcache.demand_accesses::total       268902                       # number of demand (read+write) accesses
system.cpu00.dcache.overall_accesses::cpu00.data       268902                       # number of overall (read+write) accesses
system.cpu00.dcache.overall_accesses::total       268902                       # number of overall (read+write) accesses
system.cpu00.dcache.ReadReq_miss_rate::cpu00.data     0.054260                       # miss rate for ReadReq accesses
system.cpu00.dcache.ReadReq_miss_rate::total     0.054260                       # miss rate for ReadReq accesses
system.cpu00.dcache.WriteReq_miss_rate::cpu00.data     0.278893                       # miss rate for WriteReq accesses
system.cpu00.dcache.WriteReq_miss_rate::total     0.278893                       # miss rate for WriteReq accesses
system.cpu00.dcache.LoadLockedReq_miss_rate::cpu00.data     0.208645                       # miss rate for LoadLockedReq accesses
system.cpu00.dcache.LoadLockedReq_miss_rate::total     0.208645                       # miss rate for LoadLockedReq accesses
system.cpu00.dcache.StoreCondReq_miss_rate::cpu00.data     0.019590                       # miss rate for StoreCondReq accesses
system.cpu00.dcache.StoreCondReq_miss_rate::total     0.019590                       # miss rate for StoreCondReq accesses
system.cpu00.dcache.demand_miss_rate::cpu00.data     0.153171                       # miss rate for demand accesses
system.cpu00.dcache.demand_miss_rate::total     0.153171                       # miss rate for demand accesses
system.cpu00.dcache.overall_miss_rate::cpu00.data     0.153171                       # miss rate for overall accesses
system.cpu00.dcache.overall_miss_rate::total     0.153171                       # miss rate for overall accesses
system.cpu00.dcache.ReadReq_avg_miss_latency::cpu00.data 48946.450404                       # average ReadReq miss latency
system.cpu00.dcache.ReadReq_avg_miss_latency::total 48946.450404                       # average ReadReq miss latency
system.cpu00.dcache.WriteReq_avg_miss_latency::cpu00.data 162494.976410                       # average WriteReq miss latency
system.cpu00.dcache.WriteReq_avg_miss_latency::total 162494.976410                       # average WriteReq miss latency
system.cpu00.dcache.LoadLockedReq_avg_miss_latency::cpu00.data  9846.932271                       # average LoadLockedReq miss latency
system.cpu00.dcache.LoadLockedReq_avg_miss_latency::total  9846.932271                       # average LoadLockedReq miss latency
system.cpu00.dcache.StoreCondReq_avg_miss_latency::cpu00.data 21226.909091                       # average StoreCondReq miss latency
system.cpu00.dcache.StoreCondReq_avg_miss_latency::total 21226.909091                       # average StoreCondReq miss latency
system.cpu00.dcache.demand_avg_miss_latency::cpu00.data 139982.660605                       # average overall miss latency
system.cpu00.dcache.demand_avg_miss_latency::total 139982.660605                       # average overall miss latency
system.cpu00.dcache.overall_avg_miss_latency::cpu00.data 139982.660605                       # average overall miss latency
system.cpu00.dcache.overall_avg_miss_latency::total 139982.660605                       # average overall miss latency
system.cpu00.dcache.blocked_cycles::no_mshrs       146341                       # number of cycles access was blocked
system.cpu00.dcache.blocked_cycles::no_targets            0                       # number of cycles access was blocked
system.cpu00.dcache.blocked::no_mshrs            2563                       # number of cycles access was blocked
system.cpu00.dcache.blocked::no_targets             0                       # number of cycles access was blocked
system.cpu00.dcache.avg_blocked_cycles::no_mshrs    57.097542                       # average number of cycles each access was blocked
system.cpu00.dcache.avg_blocked_cycles::no_targets          nan                       # average number of cycles each access was blocked
system.cpu00.dcache.fast_writes                     0                       # number of fast writes performed
system.cpu00.dcache.cache_copies                    0                       # number of cache copies performed
system.cpu00.dcache.writebacks::writebacks         8408                       # number of writebacks
system.cpu00.dcache.writebacks::total            8408                       # number of writebacks
system.cpu00.dcache.ReadReq_mshr_hits::cpu00.data         2784                       # number of ReadReq MSHR hits
system.cpu00.dcache.ReadReq_mshr_hits::total         2784                       # number of ReadReq MSHR hits
system.cpu00.dcache.WriteReq_mshr_hits::cpu00.data        26734                       # number of WriteReq MSHR hits
system.cpu00.dcache.WriteReq_mshr_hits::total        26734                       # number of WriteReq MSHR hits
system.cpu00.dcache.LoadLockedReq_mshr_hits::cpu00.data          144                       # number of LoadLockedReq MSHR hits
system.cpu00.dcache.LoadLockedReq_mshr_hits::total          144                       # number of LoadLockedReq MSHR hits
system.cpu00.dcache.demand_mshr_hits::cpu00.data        29518                       # number of demand (read+write) MSHR hits
system.cpu00.dcache.demand_mshr_hits::total        29518                       # number of demand (read+write) MSHR hits
system.cpu00.dcache.overall_mshr_hits::cpu00.data        29518                       # number of overall MSHR hits
system.cpu00.dcache.overall_mshr_hits::total        29518                       # number of overall MSHR hits
system.cpu00.dcache.ReadReq_mshr_misses::cpu00.data         5382                       # number of ReadReq MSHR misses
system.cpu00.dcache.ReadReq_mshr_misses::total         5382                       # number of ReadReq MSHR misses
system.cpu00.dcache.WriteReq_mshr_misses::cpu00.data         6288                       # number of WriteReq MSHR misses
system.cpu00.dcache.WriteReq_mshr_misses::total         6288                       # number of WriteReq MSHR misses
system.cpu00.dcache.LoadLockedReq_mshr_misses::cpu00.data          107                       # number of LoadLockedReq MSHR misses
system.cpu00.dcache.LoadLockedReq_mshr_misses::total          107                       # number of LoadLockedReq MSHR misses
system.cpu00.dcache.StoreCondReq_mshr_misses::cpu00.data           22                       # number of StoreCondReq MSHR misses
system.cpu00.dcache.StoreCondReq_mshr_misses::total           22                       # number of StoreCondReq MSHR misses
system.cpu00.dcache.demand_mshr_misses::cpu00.data        11670                       # number of demand (read+write) MSHR misses
system.cpu00.dcache.demand_mshr_misses::total        11670                       # number of demand (read+write) MSHR misses
system.cpu00.dcache.overall_mshr_misses::cpu00.data        11670                       # number of overall MSHR misses
system.cpu00.dcache.overall_mshr_misses::total        11670                       # number of overall MSHR misses
system.cpu00.dcache.ReadReq_mshr_miss_latency::cpu00.data    228950280                       # number of ReadReq MSHR miss cycles
system.cpu00.dcache.ReadReq_mshr_miss_latency::total    228950280                       # number of ReadReq MSHR miss cycles
system.cpu00.dcache.WriteReq_mshr_miss_latency::cpu00.data   1134568114                       # number of WriteReq MSHR miss cycles
system.cpu00.dcache.WriteReq_mshr_miss_latency::total   1134568114                       # number of WriteReq MSHR miss cycles
system.cpu00.dcache.LoadLockedReq_mshr_miss_latency::cpu00.data       925290                       # number of LoadLockedReq MSHR miss cycles
system.cpu00.dcache.LoadLockedReq_mshr_miss_latency::total       925290                       # number of LoadLockedReq MSHR miss cycles
system.cpu00.dcache.StoreCondReq_mshr_miss_latency::cpu00.data       439668                       # number of StoreCondReq MSHR miss cycles
system.cpu00.dcache.StoreCondReq_mshr_miss_latency::total       439668                       # number of StoreCondReq MSHR miss cycles
system.cpu00.dcache.demand_mshr_miss_latency::cpu00.data   1363518394                       # number of demand (read+write) MSHR miss cycles
system.cpu00.dcache.demand_mshr_miss_latency::total   1363518394                       # number of demand (read+write) MSHR miss cycles
system.cpu00.dcache.overall_mshr_miss_latency::cpu00.data   1363518394                       # number of overall MSHR miss cycles
system.cpu00.dcache.overall_mshr_miss_latency::total   1363518394                       # number of overall MSHR miss cycles
system.cpu00.dcache.ReadReq_mshr_miss_rate::cpu00.data     0.035761                       # mshr miss rate for ReadReq accesses
system.cpu00.dcache.ReadReq_mshr_miss_rate::total     0.035761                       # mshr miss rate for ReadReq accesses
system.cpu00.dcache.WriteReq_mshr_miss_rate::cpu00.data     0.053106                       # mshr miss rate for WriteReq accesses
system.cpu00.dcache.WriteReq_mshr_miss_rate::total     0.053106                       # mshr miss rate for WriteReq accesses
system.cpu00.dcache.LoadLockedReq_mshr_miss_rate::cpu00.data     0.088944                       # mshr miss rate for LoadLockedReq accesses
system.cpu00.dcache.LoadLockedReq_mshr_miss_rate::total     0.088944                       # mshr miss rate for LoadLockedReq accesses
system.cpu00.dcache.StoreCondReq_mshr_miss_rate::cpu00.data     0.019590                       # mshr miss rate for StoreCondReq accesses
system.cpu00.dcache.StoreCondReq_mshr_miss_rate::total     0.019590                       # mshr miss rate for StoreCondReq accesses
system.cpu00.dcache.demand_mshr_miss_rate::cpu00.data     0.043399                       # mshr miss rate for demand accesses
system.cpu00.dcache.demand_mshr_miss_rate::total     0.043399                       # mshr miss rate for demand accesses
system.cpu00.dcache.overall_mshr_miss_rate::cpu00.data     0.043399                       # mshr miss rate for overall accesses
system.cpu00.dcache.overall_mshr_miss_rate::total     0.043399                       # mshr miss rate for overall accesses
system.cpu00.dcache.ReadReq_avg_mshr_miss_latency::cpu00.data        42540                       # average ReadReq mshr miss latency
system.cpu00.dcache.ReadReq_avg_mshr_miss_latency::total        42540                       # average ReadReq mshr miss latency
system.cpu00.dcache.WriteReq_avg_mshr_miss_latency::cpu00.data 180433.860369                       # average WriteReq mshr miss latency
system.cpu00.dcache.WriteReq_avg_mshr_miss_latency::total 180433.860369                       # average WriteReq mshr miss latency
[...]
system.tol2bus.pkt_count_system.cpu06.dcache.mem_side::system.l2.cpu_side         3622                       # Packet count per connected master and slave (bytes)
system.tol2bus.pkt_count_system.cpu07.icache.mem_side::system.l2.cpu_side         3291                       # Packet count per connected master and slave (bytes)
system.tol2bus.pkt_count_system.cpu07.dcache.mem_side::system.l2.cpu_side         4376                       # Packet count per connected master and slave (bytes)
system.tol2bus.pkt_count_system.cpu08.icache.mem_side::system.l2.cpu_side         3404                       # Packet count per connected master and slave (bytes)
system.tol2bus.pkt_count_system.cpu08.dcache.mem_side::system.l2.cpu_side         3951                       # Packet count per connected master and slave (bytes)
system.tol2bus.pkt_count_system.cpu09.icache.mem_side::system.l2.cpu_side         3804                       # Packet count per connected master and slave (bytes)
system.tol2bus.pkt_count_system.cpu09.dcache.mem_side::system.l2.cpu_side         4854                       # Packet count per connected master and slave (bytes)
system.tol2bus.pkt_count_system.cpu10.icache.mem_side::system.l2.cpu_side         2763                       # Packet count per connected master and slave (bytes)
system.tol2bus.pkt_count_system.cpu10.dcache.mem_side::system.l2.cpu_side         2780                       # Packet count per connected master and slave (bytes)
system.tol2bus.pkt_count_system.cpu11.icache.mem_side::system.l2.cpu_side         3010                       # Packet count per connected master and slave (bytes)
system.tol2bus.pkt_count_system.cpu11.dcache.mem_side::system.l2.cpu_side         3231                       # Packet count per connected master and slave (bytes)
system.tol2bus.pkt_count_system.cpu12.icache.mem_side::system.l2.cpu_side         3304                       # Packet count per connected master and slave (bytes)
system.tol2bus.pkt_count_system.cpu12.dcache.mem_side::system.l2.cpu_side         3539                       # Packet count per connected master and slave (bytes)
system.tol2bus.pkt_count_system.cpu13.icache.mem_side::system.l2.cpu_side         4204                       # Packet count per connected master and slave (bytes)
system.tol2bus.pkt_count_system.cpu13.dcache.mem_side::system.l2.cpu_side         4850                       # Packet count per connected master and slave (bytes)
system.tol2bus.pkt_count_system.cpu14.icache.mem_side::system.l2.cpu_side         1229                       # Packet count per connected master and slave (bytes)
system.tol2bus.pkt_count_system.cpu14.dcache.mem_side::system.l2.cpu_side         1154                       # Packet count per connected master and slave (bytes)
system.tol2bus.pkt_count_system.cpu15.icache.mem_side::system.l2.cpu_side         1566                       # Packet count per connected master and slave (bytes)
system.tol2bus.pkt_count_system.cpu15.dcache.mem_side::system.l2.cpu_side         2112                       # Packet count per connected master and slave (bytes)
system.tol2bus.pkt_count::total                146336                       # Packet count per connected master and slave (bytes)
system.tol2bus.pkt_size_system.cpu00.icache.mem_side::system.l2.cpu_side       975616                       # Cumulative packet size per connected master and slave (bytes)
system.tol2bus.pkt_size_system.cpu00.dcache.mem_side::system.l2.cpu_side      1270272                       # Cumulative packet size per connected master and slave (bytes)
system.tol2bus.pkt_size_system.cpu01.icache.mem_side::system.l2.cpu_side        91584                       # Cumulative packet size per connected master and slave (bytes)
system.tol2bus.pkt_size_system.cpu01.dcache.mem_side::system.l2.cpu_side        43968                       # Cumulative packet size per connected master and slave (bytes)
system.tol2bus.pkt_size_system.cpu02.icache.mem_side::system.l2.cpu_side       136640                       # Cumulative packet size per connected master and slave (bytes)
system.tol2bus.pkt_size_system.cpu02.dcache.mem_side::system.l2.cpu_side        58624                       # Cumulative packet size per connected master and slave (bytes)
system.tol2bus.pkt_size_system.cpu03.icache.mem_side::system.l2.cpu_side        36608                       # Cumulative packet size per connected master and slave (bytes)
system.tol2bus.pkt_size_system.cpu03.dcache.mem_side::system.l2.cpu_side        29312                       # Cumulative packet size per connected master and slave (bytes)
system.tol2bus.pkt_size_system.cpu04.icache.mem_side::system.l2.cpu_side       124608                       # Cumulative packet size per connected master and slave (bytes)
system.tol2bus.pkt_size_system.cpu04.dcache.mem_side::system.l2.cpu_side        51904                       # Cumulative packet size per connected master and slave (bytes)
system.tol2bus.pkt_size_system.cpu05.icache.mem_side::system.l2.cpu_side        31680                       # Cumulative packet size per connected master and slave (bytes)
system.tol2bus.pkt_size_system.cpu05.dcache.mem_side::system.l2.cpu_side        26752                       # Cumulative packet size per connected master and slave (bytes)
system.tol2bus.pkt_size_system.cpu06.icache.mem_side::system.l2.cpu_side       101184                       # Cumulative packet size per connected master and slave (bytes)
system.tol2bus.pkt_size_system.cpu06.dcache.mem_side::system.l2.cpu_side        49600                       # Cumulative packet size per connected master and slave (bytes)
system.tol2bus.pkt_size_system.cpu07.icache.mem_side::system.l2.cpu_side       129984                       # Cumulative packet size per connected master and slave (bytes)
system.tol2bus.pkt_size_system.cpu07.dcache.mem_side::system.l2.cpu_side        51904                       # Cumulative packet size per connected master and slave (bytes)
system.tol2bus.pkt_size_system.cpu08.icache.mem_side::system.l2.cpu_side       134720                       # Cumulative packet size per connected master and slave (bytes)
system.tol2bus.pkt_size_system.cpu08.dcache.mem_side::system.l2.cpu_side        50880                       # Cumulative packet size per connected master and slave (bytes)
system.tol2bus.pkt_size_system.cpu09.icache.mem_side::system.l2.cpu_side       151744                       # Cumulative packet size per connected master and slave (bytes)
system.tol2bus.pkt_size_system.cpu09.dcache.mem_side::system.l2.cpu_side        62080                       # Cumulative packet size per connected master and slave (bytes)
system.tol2bus.pkt_size_system.cpu10.icache.mem_side::system.l2.cpu_side       107712                       # Cumulative packet size per connected master and slave (bytes)
system.tol2bus.pkt_size_system.cpu10.dcache.mem_side::system.l2.cpu_side        48064                       # Cumulative packet size per connected master and slave (bytes)
system.tol2bus.pkt_size_system.cpu11.icache.mem_side::system.l2.cpu_side       118144                       # Cumulative packet size per connected master and slave (bytes)
system.tol2bus.pkt_size_system.cpu11.dcache.mem_side::system.l2.cpu_side        48576                       # Cumulative packet size per connected master and slave (bytes)
system.tol2bus.pkt_size_system.cpu12.icache.mem_side::system.l2.cpu_side       130624                       # Cumulative packet size per connected master and slave (bytes)
system.tol2bus.pkt_size_system.cpu12.dcache.mem_side::system.l2.cpu_side        51072                       # Cumulative packet size per connected master and slave (bytes)
system.tol2bus.pkt_size_system.cpu13.icache.mem_side::system.l2.cpu_side       169408                       # Cumulative packet size per connected master and slave (bytes)
system.tol2bus.pkt_size_system.cpu13.dcache.mem_side::system.l2.cpu_side        68288                       # Cumulative packet size per connected master and slave (bytes)
system.tol2bus.pkt_size_system.cpu14.icache.mem_side::system.l2.cpu_side        43264                       # Cumulative packet size per connected master and slave (bytes)
system.tol2bus.pkt_size_system.cpu14.dcache.mem_side::system.l2.cpu_side        34816                       # Cumulative packet size per connected master and slave (bytes)
system.tol2bus.pkt_size_system.cpu15.icache.mem_side::system.l2.cpu_side        57088                       # Cumulative packet size per connected master and slave (bytes)
system.tol2bus.pkt_size_system.cpu15.dcache.mem_side::system.l2.cpu_side        32384                       # Cumulative packet size per connected master and slave (bytes)
system.tol2bus.pkt_size::total                4519104                       # Cumulative packet size per connected master and slave (bytes)
system.tol2bus.snoops                           17390                       # Total snoops (count)
system.tol2bus.snoop_fanout::samples            63591                       # Request fanout histogram
system.tol2bus.snoop_fanout::mean            2.536491                       # Request fanout histogram
system.tol2bus.snoop_fanout::stdev           3.776686                       # Request fanout histogram
system.tol2bus.snoop_fanout::underflows             0      0.00%      0.00% # Request fanout histogram
system.tol2bus.snoop_fanout::0                  25381     39.91%     39.91% # Request fanout histogram
system.tol2bus.snoop_fanout::1                  15799     24.84%     64.76% # Request fanout histogram
system.tol2bus.snoop_fanout::2                   4399      6.92%     71.68% # Request fanout histogram
system.tol2bus.snoop_fanout::3                   3239      5.09%     76.77% # Request fanout histogram
system.tol2bus.snoop_fanout::4                   1921      3.02%     79.79% # Request fanout histogram
system.tol2bus.snoop_fanout::5                   1573      2.47%     82.26% # Request fanout histogram
system.tol2bus.snoop_fanout::6                   1400      2.20%     84.46% # Request fanout histogram
system.tol2bus.snoop_fanout::7                   1338      2.10%     86.57% # Request fanout histogram
system.tol2bus.snoop_fanout::8                   1347      2.12%     88.69% # Request fanout histogram
system.tol2bus.snoop_fanout::9                   1366      2.15%     90.84% # Request fanout histogram
system.tol2bus.snoop_fanout::10                  1243      1.95%     92.79% # Request fanout histogram
system.tol2bus.snoop_fanout::11                  1106      1.74%     94.53% # Request fanout histogram
system.tol2bus.snoop_fanout::12                  1240      1.95%     96.48% # Request fanout histogram
system.tol2bus.snoop_fanout::13                   820      1.29%     97.77% # Request fanout histogram
system.tol2bus.snoop_fanout::14                   828      1.30%     99.07% # Request fanout histogram
system.tol2bus.snoop_fanout::15                   585      0.92%     99.99% # Request fanout histogram
system.tol2bus.snoop_fanout::16                     6      0.01%    100.00% # Request fanout histogram
system.tol2bus.snoop_fanout::17                     0      0.00%    100.00% # Request fanout histogram
system.tol2bus.snoop_fanout::18                     0      0.00%    100.00% # Request fanout histogram
system.tol2bus.snoop_fanout::19                     0      0.00%    100.00% # Request fanout histogram
system.tol2bus.snoop_fanout::20                     0      0.00%    100.00% # Request fanout histogram
system.tol2bus.snoop_fanout::21                     0      0.00%    100.00% # Request fanout histogram
system.tol2bus.snoop_fanout::22                     0      0.00%    100.00% # Request fanout histogram
system.tol2bus.snoop_fanout::23                     0      0.00%    100.00% # Request fanout histogram
system.tol2bus.snoop_fanout::24                     0      0.00%    100.00% # Request fanout histogram
system.tol2bus.snoop_fanout::25                     0      0.00%    100.00% # Request fanout histogram
system.tol2bus.snoop_fanout::26                     0      0.00%    100.00% # Request fanout histogram
system.tol2bus.snoop_fanout::27                     0      0.00%    100.00% # Request fanout histogram
system.tol2bus.snoop_fanout::28                     0      0.00%    100.00% # Request fanout histogram
system.tol2bus.snoop_fanout::29                     0      0.00%    100.00% # Request fanout histogram
system.tol2bus.snoop_fanout::30                     0      0.00%    100.00% # Request fanout histogram
system.tol2bus.snoop_fanout::31                     0      0.00%    100.00% # Request fanout histogram
system.tol2bus.snoop_fanout::32                     0      0.00%    100.00% # Request fanout histogram
system.tol2bus.snoop_fanout::overflows              0      0.00%    100.00% # Request fanout histogram
system.tol2bus.snoop_fanout::min_value              0                       # Request fanout histogram
system.tol2bus.snoop_fanout::max_value             16                       # Request fanout histogram
system.tol2bus.snoop_fanout::total              63591                       # Request fanout histogram
system.tol2bus.reqLayer0.occupancy          193950188                       # Layer occupancy (ticks)
system.tol2bus.reqLayer0.utilization             14.4                       # Layer utilization (%)
system.tol2bus.respLayer0.occupancy          29725340                       # Layer occupancy (ticks)
system.tol2bus.respLayer0.utilization             2.2                       # Layer utilization (%)
system.tol2bus.respLayer1.occupancy          43983573                       # Layer occupancy (ticks)
system.tol2bus.respLayer1.utilization             3.3                       # Layer utilization (%)
system.tol2bus.respLayer2.occupancy           3646666                       # Layer occupancy (ticks)
system.tol2bus.respLayer2.utilization             0.3                       # Layer utilization (%)
system.tol2bus.respLayer3.occupancy           5930405                       # Layer occupancy (ticks)
system.tol2bus.respLayer3.utilization             0.4                       # Layer utilization (%)
system.tol2bus.respLayer4.occupancy           4965878                       # Layer occupancy (ticks)
system.tol2bus.respLayer4.utilization             0.4                       # Layer utilization (%)
system.tol2bus.respLayer5.occupancy           8053001                       # Layer occupancy (ticks)
system.tol2bus.respLayer5.utilization             0.6                       # Layer utilization (%)
system.tol2bus.respLayer6.occupancy           1874639                       # Layer occupancy (ticks)
system.tol2bus.respLayer6.utilization             0.1                       # Layer utilization (%)
system.tol2bus.respLayer7.occupancy           1788391                       # Layer occupancy (ticks)
system.tol2bus.respLayer7.utilization             0.1                       # Layer utilization (%)
system.tol2bus.respLayer8.occupancy           4614301                       # Layer occupancy (ticks)
system.tol2bus.respLayer8.utilization             0.3                       # Layer utilization (%)
system.tol2bus.respLayer9.occupancy           7407015                       # Layer occupancy (ticks)
system.tol2bus.respLayer9.utilization             0.6                       # Layer utilization (%)
system.tol2bus.respLayer10.occupancy          1683443                       # Layer occupancy (ticks)
system.tol2bus.respLayer10.utilization            0.1                       # Layer utilization (%)
system.tol2bus.respLayer11.occupancy          1706477                       # Layer occupancy (ticks)
system.tol2bus.respLayer11.utilization            0.1                       # Layer utilization (%)
system.tol2bus.respLayer12.occupancy          3935455                       # Layer occupancy (ticks)
system.tol2bus.respLayer12.utilization            0.3                       # Layer utilization (%)
system.tol2bus.respLayer13.occupancy          6484316                       # Layer occupancy (ticks)
system.tol2bus.respLayer13.utilization            0.5                       # Layer utilization (%)
system.tol2bus.respLayer14.occupancy          4773105                       # Layer occupancy (ticks)
system.tol2bus.respLayer14.utilization            0.4                       # Layer utilization (%)
system.tol2bus.respLayer15.occupancy          8049029                       # Layer occupancy (ticks)
system.tol2bus.respLayer15.utilization            0.6                       # Layer utilization (%)
system.tol2bus.respLayer16.occupancy          4897004                       # Layer occupancy (ticks)
system.tol2bus.respLayer16.utilization            0.4                       # Layer utilization (%)
system.tol2bus.respLayer17.occupancy          7287483                       # Layer occupancy (ticks)
system.tol2bus.respLayer17.utilization            0.5                       # Layer utilization (%)
system.tol2bus.respLayer18.occupancy          5427172                       # Layer occupancy (ticks)
system.tol2bus.respLayer18.utilization            0.4                       # Layer utilization (%)
system.tol2bus.respLayer19.occupancy          8823050                       # Layer occupancy (ticks)
system.tol2bus.respLayer19.utilization            0.7                       # Layer utilization (%)
system.tol2bus.respLayer20.occupancy          4099030                       # Layer occupancy (ticks)
system.tol2bus.respLayer20.utilization            0.3                       # Layer utilization (%)
system.tol2bus.respLayer21.occupancy          5073540                       # Layer occupancy (ticks)
system.tol2bus.respLayer21.utilization            0.4                       # Layer utilization (%)
system.tol2bus.respLayer22.occupancy          4419159                       # Layer occupancy (ticks)
system.tol2bus.respLayer22.utilization            0.3                       # Layer utilization (%)
system.tol2bus.respLayer23.occupancy          5822382                       # Layer occupancy (ticks)
system.tol2bus.respLayer23.utilization            0.4                       # Layer utilization (%)
system.tol2bus.respLayer24.occupancy          4846702                       # Layer occupancy (ticks)
system.tol2bus.respLayer24.utilization            0.4                       # Layer utilization (%)
system.tol2bus.respLayer25.occupancy          6440679                       # Layer occupancy (ticks)
system.tol2bus.respLayer25.utilization            0.5                       # Layer utilization (%)
system.tol2bus.respLayer26.occupancy          5893947                       # Layer occupancy (ticks)
system.tol2bus.respLayer26.utilization            0.4                       # Layer utilization (%)
system.tol2bus.respLayer27.occupancy          8694127                       # Layer occupancy (ticks)
system.tol2bus.respLayer27.utilization            0.6                       # Layer utilization (%)
system.tol2bus.respLayer28.occupancy          2114980                       # Layer occupancy (ticks)
system.tol2bus.respLayer28.utilization            0.2                       # Layer utilization (%)
system.tol2bus.respLayer29.occupancy          1779838                       # Layer occupancy (ticks)
system.tol2bus.respLayer29.utilization            0.1                       # Layer utilization (%)
system.tol2bus.respLayer30.occupancy          2585623                       # Layer occupancy (ticks)
system.tol2bus.respLayer30.utilization            0.2                       # Layer utilization (%)
system.tol2bus.respLayer31.occupancy          2902529                       # Layer occupancy (ticks)
system.tol2bus.respLayer31.utilization            0.2                       # Layer utilization (%)

---------- End Simulation Statistics   ----------
