
---------- Begin Simulation Statistics ----------
sim_seconds                                  0.001286                       # Number of seconds simulated
sim_ticks                                  1285740162                       # Number of ticks simulated
final_tick                                 1285740162                       # Number of ticks from beginning of simulation (restored from checkpoints and never reset)
sim_freq                                 1000000000000                       # Frequency of simulated ticks
host_inst_rate                                 224606                       # Simulator instruction rate (inst/s)
host_op_rate                                   224605                       # Simulator op (including micro ops) rate (op/s)
host_tick_rate                              118743011                       # Simulator tick rate (ticks/s)
host_mem_usage                                 694896                       # Number of bytes of host memory used
host_seconds                                    10.83                       # Real time elapsed on the host
sim_insts                                     2432005                       # Number of instructions simulated
sim_ops                                       2432005                       # Number of ops (including micro ops) simulated
system.voltage_domain.voltage                       1                       # Voltage in Volts
system.clk_domain.clock                          1000                       # Clock period in ticks
system.mem_ctrls.bytes_read::cpu00.inst        123520                       # Number of bytes read from this memory
system.mem_ctrls.bytes_read::cpu00.data        378496                       # Number of bytes read from this memory
system.mem_ctrls.bytes_read::cpu01.inst         11456                       # Number of bytes read from this memory
system.mem_ctrls.bytes_read::cpu01.data          6848                       # Number of bytes read from this memory
system.mem_ctrls.bytes_read::cpu02.inst          1280                       # Number of bytes read from this memory
system.mem_ctrls.bytes_read::cpu02.data          6336                       # Number of bytes read from this memory
system.mem_ctrls.bytes_read::cpu03.inst          1920                       # Number of bytes read from this memory
system.mem_ctrls.bytes_read::cpu03.data          6144                       # Number of bytes read from this memory
system.mem_ctrls.bytes_read::cpu04.data          6784                       # Number of bytes read from this memory
system.mem_ctrls.bytes_read::cpu05.inst           768                       # Number of bytes read from this memory
system.mem_ctrls.bytes_read::cpu05.data          6400                       # Number of bytes read from this memory
system.mem_ctrls.bytes_read::cpu06.inst           448                       # Number of bytes read from this memory
system.mem_ctrls.bytes_read::cpu06.data          5824                       # Number of bytes read from this memory
system.mem_ctrls.bytes_read::cpu07.inst          3584                       # Number of bytes read from this memory
system.mem_ctrls.bytes_read::cpu07.data          6016                       # Number of bytes read from this memory
system.mem_ctrls.bytes_read::cpu08.inst          1664                       # Number of bytes read from this memory
system.mem_ctrls.bytes_read::cpu08.data          5376                       # Number of bytes read from this memory
system.mem_ctrls.bytes_read::cpu09.inst          3328                       # Number of bytes read from this memory
system.mem_ctrls.bytes_read::cpu09.data          5376                       # Number of bytes read from this memory
system.mem_ctrls.bytes_read::cpu10.inst           768                       # Number of bytes read from this memory
system.mem_ctrls.bytes_read::cpu10.data          6592                       # Number of bytes read from this memory
system.mem_ctrls.bytes_read::cpu11.inst           320                       # Number of bytes read from this memory
system.mem_ctrls.bytes_read::cpu11.data          4672                       # Number of bytes read from this memory
system.mem_ctrls.bytes_read::cpu12.inst           192                       # Number of bytes read from this memory
system.mem_ctrls.bytes_read::cpu12.data          6336                       # Number of bytes read from this memory
system.mem_ctrls.bytes_read::cpu13.inst           704                       # Number of bytes read from this memory
system.mem_ctrls.bytes_read::cpu13.data          5696                       # Number of bytes read from this memory
system.mem_ctrls.bytes_read::cpu14.inst          2176                       # Number of bytes read from this memory
system.mem_ctrls.bytes_read::cpu14.data          6656                       # Number of bytes read from this memory
system.mem_ctrls.bytes_read::cpu15.inst          1152                       # Number of bytes read from this memory
system.mem_ctrls.bytes_read::cpu15.data          4480                       # Number of bytes read from this memory
system.mem_ctrls.bytes_read::total             621312                       # Number of bytes read from this memory
system.mem_ctrls.bytes_inst_read::cpu00.inst       123520                       # Number of instructions bytes read from this memory
system.mem_ctrls.bytes_inst_read::cpu01.inst        11456                       # Number of instructions bytes read from this memory
system.mem_ctrls.bytes_inst_read::cpu02.inst         1280                       # Number of instructions bytes read from this memory
system.mem_ctrls.bytes_inst_read::cpu03.inst         1920                       # Number of instructions bytes read from this memory
system.mem_ctrls.bytes_inst_read::cpu05.inst          768                       # Number of instructions bytes read from this memory
system.mem_ctrls.bytes_inst_read::cpu06.inst          448                       # Number of instructions bytes read from this memory
system.mem_ctrls.bytes_inst_read::cpu07.inst         3584                       # Number of instructions bytes read from this memory
system.mem_ctrls.bytes_inst_read::cpu08.inst         1664                       # Number of instructions bytes read from this memory
system.mem_ctrls.bytes_inst_read::cpu09.inst         3328                       # Number of instructions bytes read from this memory
system.mem_ctrls.bytes_inst_read::cpu10.inst          768                       # Number of instructions bytes read from this memory
system.mem_ctrls.bytes_inst_read::cpu11.inst          320                       # Number of instructions bytes read from this memory
system.mem_ctrls.bytes_inst_read::cpu12.inst          192                       # Number of instructions bytes read from this memory
system.mem_ctrls.bytes_inst_read::cpu13.inst          704                       # Number of instructions bytes read from this memory
system.mem_ctrls.bytes_inst_read::cpu14.inst         2176                       # Number of instructions bytes read from this memory
system.mem_ctrls.bytes_inst_read::cpu15.inst         1152                       # Number of instructions bytes read from this memory
system.mem_ctrls.bytes_inst_read::total        153280                       # Number of instructions bytes read from this memory
system.mem_ctrls.bytes_written::writebacks        77632                       # Number of bytes written to this memory
system.mem_ctrls.bytes_written::total           77632                       # Number of bytes written to this memory
system.mem_ctrls.num_reads::cpu00.inst           1930                       # Number of read requests responded to by this memory
system.mem_ctrls.num_reads::cpu00.data           5914                       # Number of read requests responded to by this memory
system.mem_ctrls.num_reads::cpu01.inst            179                       # Number of read requests responded to by this memory
system.mem_ctrls.num_reads::cpu01.data            107                       # Number of read requests responded to by this memory
system.mem_ctrls.num_reads::cpu02.inst             20                       # Number of read requests responded to by this memory
system.mem_ctrls.num_reads::cpu02.data             99                       # Number of read requests responded to by this memory
system.mem_ctrls.num_reads::cpu03.inst             30                       # Number of read requests responded to by this memory
system.mem_ctrls.num_reads::cpu03.data             96                       # Number of read requests responded to by this memory
system.mem_ctrls.num_reads::cpu04.data            106                       # Number of read requests responded to by this memory
system.mem_ctrls.num_reads::cpu05.inst             12                       # Number of read requests responded to by this memory
system.mem_ctrls.num_reads::cpu05.data            100                       # Number of read requests responded to by this memory
system.mem_ctrls.num_reads::cpu06.inst              7                       # Number of read requests responded to by this memory
system.mem_ctrls.num_reads::cpu06.data             91                       # Number of read requests responded to by this memory
system.mem_ctrls.num_reads::cpu07.inst             56                       # Number of read requests responded to by this memory
system.mem_ctrls.num_reads::cpu07.data             94                       # Number of read requests responded to by this memory
system.mem_ctrls.num_reads::cpu08.inst             26                       # Number of read requests responded to by this memory
system.mem_ctrls.num_reads::cpu08.data             84                       # Number of read requests responded to by this memory
system.mem_ctrls.num_reads::cpu09.inst             52                       # Number of read requests responded to by this memory
system.mem_ctrls.num_reads::cpu09.data             84                       # Number of read requests responded to by this memory
system.mem_ctrls.num_reads::cpu10.inst             12                       # Number of read requests responded to by this memory
system.mem_ctrls.num_reads::cpu10.data            103                       # Number of read requests responded to by this memory
system.mem_ctrls.num_reads::cpu11.inst              5                       # Number of read requests responded to by this memory
system.mem_ctrls.num_reads::cpu11.data             73                       # Number of read requests responded to by this memory
system.mem_ctrls.num_reads::cpu12.inst              3                       # Number of read requests responded to by this memory
system.mem_ctrls.num_reads::cpu12.data             99                       # Number of read requests responded to by this memory
system.mem_ctrls.num_reads::cpu13.inst             11                       # Number of read requests responded to by this memory
system.mem_ctrls.num_reads::cpu13.data             89                       # Number of read requests responded to by this memory
system.mem_ctrls.num_reads::cpu14.inst             34                       # Number of read requests responded to by this memory
system.mem_ctrls.num_reads::cpu14.data            104                       # Number of read requests responded to by this memory
system.mem_ctrls.num_reads::cpu15.inst             18                       # Number of read requests responded to by this memory
system.mem_ctrls.num_reads::cpu15.data             70                       # Number of read requests responded to by this memory
system.mem_ctrls.num_reads::total                9708                       # Number of read requests responded to by this memory
system.mem_ctrls.num_writes::writebacks          1213                       # Number of write requests responded to by this memory
system.mem_ctrls.num_writes::total               1213                       # Number of write requests responded to by this memory
system.mem_ctrls.bw_read::cpu00.inst         96069178                       # Total read bandwidth from this memory (bytes/s)
system.mem_ctrls.bw_read::cpu00.data        294379853                       # Total read bandwidth from this memory (bytes/s)
system.mem_ctrls.bw_read::cpu01.inst          8910043                       # Total read bandwidth from this memory (bytes/s)
system.mem_ctrls.bw_read::cpu01.data          5326115                       # Total read bandwidth from this memory (bytes/s)
system.mem_ctrls.bw_read::cpu02.inst           995536                       # Total read bandwidth from this memory (bytes/s)
system.mem_ctrls.bw_read::cpu02.data          4927901                       # Total read bandwidth from this memory (bytes/s)
system.mem_ctrls.bw_read::cpu03.inst          1493303                       # Total read bandwidth from this memory (bytes/s)
system.mem_ctrls.bw_read::cpu03.data          4778570                       # Total read bandwidth from this memory (bytes/s)
system.mem_ctrls.bw_read::cpu04.data          5276338                       # Total read bandwidth from this memory (bytes/s)
system.mem_ctrls.bw_read::cpu05.inst           597321                       # Total read bandwidth from this memory (bytes/s)
system.mem_ctrls.bw_read::cpu05.data          4977678                       # Total read bandwidth from this memory (bytes/s)
system.mem_ctrls.bw_read::cpu06.inst           348437                       # Total read bandwidth from this memory (bytes/s)
system.mem_ctrls.bw_read::cpu06.data          4529687                       # Total read bandwidth from this memory (bytes/s)
system.mem_ctrls.bw_read::cpu07.inst          2787499                       # Total read bandwidth from this memory (bytes/s)
system.mem_ctrls.bw_read::cpu07.data          4679017                       # Total read bandwidth from this memory (bytes/s)
system.mem_ctrls.bw_read::cpu08.inst          1294196                       # Total read bandwidth from this memory (bytes/s)
system.mem_ctrls.bw_read::cpu08.data          4181249                       # Total read bandwidth from this memory (bytes/s)
system.mem_ctrls.bw_read::cpu09.inst          2588392                       # Total read bandwidth from this memory (bytes/s)
system.mem_ctrls.bw_read::cpu09.data          4181249                       # Total read bandwidth from this memory (bytes/s)
system.mem_ctrls.bw_read::cpu10.inst           597321                       # Total read bandwidth from this memory (bytes/s)
system.mem_ctrls.bw_read::cpu10.data          5127008                       # Total read bandwidth from this memory (bytes/s)
system.mem_ctrls.bw_read::cpu11.inst           248884                       # Total read bandwidth from this memory (bytes/s)
system.mem_ctrls.bw_read::cpu11.data          3633705                       # Total read bandwidth from this memory (bytes/s)
system.mem_ctrls.bw_read::cpu12.inst           149330                       # Total read bandwidth from this memory (bytes/s)
system.mem_ctrls.bw_read::cpu12.data          4927901                       # Total read bandwidth from this memory (bytes/s)
system.mem_ctrls.bw_read::cpu13.inst           547545                       # Total read bandwidth from this memory (bytes/s)
system.mem_ctrls.bw_read::cpu13.data          4430133                       # Total read bandwidth from this memory (bytes/s)
system.mem_ctrls.bw_read::cpu14.inst          1692410                       # Total read bandwidth from this memory (bytes/s)
system.mem_ctrls.bw_read::cpu14.data          5176785                       # Total read bandwidth from this memory (bytes/s)
system.mem_ctrls.bw_read::cpu15.inst           895982                       # Total read bandwidth from this memory (bytes/s)
system.mem_ctrls.bw_read::cpu15.data          3484374                       # Total read bandwidth from this memory (bytes/s)
system.mem_ctrls.bw_read::total             483232941                       # Total read bandwidth from this memory (bytes/s)
system.mem_ctrls.bw_inst_read::cpu00.inst     96069178                       # Instruction read bandwidth from this memory (bytes/s)
system.mem_ctrls.bw_inst_read::cpu01.inst      8910043                       # Instruction read bandwidth from this memory (bytes/s)
system.mem_ctrls.bw_inst_read::cpu02.inst       995536                       # Instruction read bandwidth from this memory (bytes/s)
system.mem_ctrls.bw_inst_read::cpu03.inst      1493303                       # Instruction read bandwidth from this memory (bytes/s)
system.mem_ctrls.bw_inst_read::cpu05.inst       597321                       # Instruction read bandwidth from this memory (bytes/s)
system.mem_ctrls.bw_inst_read::cpu06.inst       348437                       # Instruction read bandwidth from this memory (bytes/s)
system.mem_ctrls.bw_inst_read::cpu07.inst      2787499                       # Instruction read bandwidth from this memory (bytes/s)
system.mem_ctrls.bw_inst_read::cpu08.inst      1294196                       # Instruction read bandwidth from this memory (bytes/s)
system.mem_ctrls.bw_inst_read::cpu09.inst      2588392                       # Instruction read bandwidth from this memory (bytes/s)
system.mem_ctrls.bw_inst_read::cpu10.inst       597321                       # Instruction read bandwidth from this memory (bytes/s)
system.mem_ctrls.bw_inst_read::cpu11.inst       248884                       # Instruction read bandwidth from this memory (bytes/s)
system.mem_ctrls.bw_inst_read::cpu12.inst       149330                       # Instruction read bandwidth from this memory (bytes/s)
system.mem_ctrls.bw_inst_read::cpu13.inst       547545                       # Instruction read bandwidth from this memory (bytes/s)
system.mem_ctrls.bw_inst_read::cpu14.inst      1692410                       # Instruction read bandwidth from this memory (bytes/s)
system.mem_ctrls.bw_inst_read::cpu15.inst       895982                       # Instruction read bandwidth from this memory (bytes/s)
system.mem_ctrls.bw_inst_read::total        119215378                       # Instruction read bandwidth from this memory (bytes/s)
system.mem_ctrls.bw_write::writebacks        60379229                       # Write bandwidth from this memory (bytes/s)
system.mem_ctrls.bw_write::total             60379229                       # Write bandwidth from this memory (bytes/s)
system.mem_ctrls.bw_total::writebacks        60379229                       # Total bandwidth to/from this memory (bytes/s)
system.mem_ctrls.bw_total::cpu00.inst        96069178                       # Total bandwidth to/from this memory (bytes/s)
system.mem_ctrls.bw_total::cpu00.data       294379853                       # Total bandwidth to/from this memory (bytes/s)
system.mem_ctrls.bw_total::cpu01.inst         8910043                       # Total bandwidth to/from this memory (bytes/s)
system.mem_ctrls.bw_total::cpu01.data         5326115                       # Total bandwidth to/from this memory (bytes/s)
system.mem_ctrls.bw_total::cpu02.inst          995536                       # Total bandwidth to/from this memory (bytes/s)
system.mem_ctrls.bw_total::cpu02.data         4927901                       # Total bandwidth to/from this memory (bytes/s)
system.mem_ctrls.bw_total::cpu03.inst         1493303                       # Total bandwidth to/from this memory (bytes/s)
system.mem_ctrls.bw_total::cpu03.data         4778570                       # Total bandwidth to/from this memory (bytes/s)
system.mem_ctrls.bw_total::cpu04.data         5276338                       # Total bandwidth to/from this memory (bytes/s)
system.mem_ctrls.bw_total::cpu05.inst          597321                       # Total bandwidth to/from this memory (bytes/s)
system.mem_ctrls.bw_total::cpu05.data         4977678                       # Total bandwidth to/from this memory (bytes/s)
system.mem_ctrls.bw_total::cpu06.inst          348437                       # Total bandwidth to/from this memory (bytes/s)
system.mem_ctrls.bw_total::cpu06.data         4529687                       # Total bandwidth to/from this memory (bytes/s)
system.mem_ctrls.bw_total::cpu07.inst         2787499                       # Total bandwidth to/from this memory (bytes/s)
system.mem_ctrls.bw_total::cpu07.data         4679017                       # Total bandwidth to/from this memory (bytes/s)
system.mem_ctrls.bw_total::cpu08.inst         1294196                       # Total bandwidth to/from this memory (bytes/s)
system.mem_ctrls.bw_total::cpu08.data         4181249                       # Total bandwidth to/from this memory (bytes/s)
system.mem_ctrls.bw_total::cpu09.inst         2588392                       # Total bandwidth to/from this memory (bytes/s)
system.mem_ctrls.bw_total::cpu09.data         4181249                       # Total bandwidth to/from this memory (bytes/s)
system.mem_ctrls.bw_total::cpu10.inst          597321                       # Total bandwidth to/from this memory (bytes/s)
system.mem_ctrls.bw_total::cpu10.data         5127008                       # Total bandwidth to/from this memory (bytes/s)
system.mem_ctrls.bw_total::cpu11.inst          248884                       # Total bandwidth to/from this memory (bytes/s)
system.mem_ctrls.bw_total::cpu11.data         3633705                       # Total bandwidth to/from this memory (bytes/s)
system.mem_ctrls.bw_total::cpu12.inst          149330                       # Total bandwidth to/from this memory (bytes/s)
system.mem_ctrls.bw_total::cpu12.data         4927901                       # Total bandwidth to/from this memory (bytes/s)
system.mem_ctrls.bw_total::cpu13.inst          547545                       # Total bandwidth to/from this memory (bytes/s)
system.mem_ctrls.bw_total::cpu13.data         4430133                       # Total bandwidth to/from this memory (bytes/s)
system.mem_ctrls.bw_total::cpu14.inst         1692410                       # Total bandwidth to/from this memory (bytes/s)
system.mem_ctrls.bw_total::cpu14.data         5176785                       # Total bandwidth to/from this memory (bytes/s)
system.mem_ctrls.bw_total::cpu15.inst          895982                       # Total bandwidth to/from this memory (bytes/s)
system.mem_ctrls.bw_total::cpu15.data         3484374                       # Total bandwidth to/from this memory (bytes/s)
system.mem_ctrls.bw_total::total            543612170                       # Total bandwidth to/from this memory (bytes/s)
system.cpu00.branchPred.lookups                133302                       # Number of BP lookups
system.cpu00.branchPred.condPredicted           74479                       # Number of conditional branches predicted
system.cpu00.branchPred.condIncorrect            5708                       # Number of conditional branches incorrect
system.cpu00.branchPred.BTBLookups              87906                       # Number of BTB lookups
system.cpu00.branchPred.BTBHits                 66740                       # Number of BTB hits
system.cpu00.branchPred.BTBCorrect                  0                       # Number of correct BTB predictions (this stat may not work properly.
system.cpu00.branchPred.BTBHitPct           75.922008                       # BTB Hit Percentage
system.cpu00.branchPred.usedRAS                 26483                       # Number of times the RAS was used to get a target.
system.cpu00.branchPred.RASInCorrect               96                       # Number of incorrect RAS predictions.
system.cpu00.branchPred.indirectLookups          3675                       # Number of indirect predictor lookups.
system.cpu00.branchPred.indirectHits             2893                       # Number of indirect target hits.
system.cpu00.branchPred.indirectMisses            782                       # Number of indirect misses.
system.cpu00.branchPredindirectMispredicted          255                       # Number of mispredicted indirect branches.
system.cpu_voltage_domain.voltage                   1                       # Voltage in Volts
system.cpu_clk_domain.clock                      1161                       # Clock period in ticks
system.cpu00.dtb.fetch_hits                         0                       # ITB hits
system.cpu00.dtb.fetch_misses                       0                       # ITB misses
system.cpu00.dtb.fetch_acv                          0                       # ITB acv
system.cpu00.dtb.fetch_accesses                     0                       # ITB accesses
system.cpu00.dtb.read_hits                     182563                       # DTB read hits
system.cpu00.dtb.read_misses                      617                       # DTB read misses
system.cpu00.dtb.read_acv                           0                       # DTB read access violations
system.cpu00.dtb.read_accesses                 183180                       # DTB read accesses
system.cpu00.dtb.write_hits                    127964                       # DTB write hits
system.cpu00.dtb.write_misses                    1029                       # DTB write misses
system.cpu00.dtb.write_acv                          0                       # DTB write access violations
system.cpu00.dtb.write_accesses                128993                       # DTB write accesses
system.cpu00.dtb.data_hits                     310527                       # DTB hits
system.cpu00.dtb.data_misses                     1646                       # DTB misses
system.cpu00.dtb.data_acv                           0                       # DTB access violations
system.cpu00.dtb.data_accesses                 312173                       # DTB accesses
system.cpu00.itb.fetch_hits                    149816                       # ITB hits
system.cpu00.itb.fetch_misses                     155                       # ITB misses
system.cpu00.itb.fetch_acv                          0                       # ITB acv
system.cpu00.itb.fetch_accesses                149971                       # ITB accesses
system.cpu00.itb.read_hits                          0                       # DTB read hits
system.cpu00.itb.read_misses                        0                       # DTB read misses
system.cpu00.itb.read_acv                           0                       # DTB read access violations
system.cpu00.itb.read_accesses                      0                       # DTB read accesses
system.cpu00.itb.write_hits                         0                       # DTB write hits
system.cpu00.itb.write_misses                       0                       # DTB write misses
system.cpu00.itb.write_acv                          0                       # DTB write access violations
system.cpu00.itb.write_accesses                     0                       # DTB write accesses
system.cpu00.itb.data_hits                          0                       # DTB hits
system.cpu00.itb.data_misses                        0                       # DTB misses
system.cpu00.itb.data_acv                           0                       # DTB access violations
system.cpu00.itb.data_accesses                      0                       # DTB accesses
system.cpu00.workload.num_syscalls               2583                       # Number of system calls
system.cpu00.numCycles                        1024385                       # number of cpu cycles simulated
system.cpu00.numWorkItemsStarted                    0                       # number of work items this cpu started
system.cpu00.numWorkItemsCompleted                  0                       # number of work items this cpu completed
system.cpu00.fetch.icacheStallCycles            77943                       # Number of cycles fetch is stalled on an Icache miss
system.cpu00.fetch.Insts                      1193482                       # Number of instructions fetch has processed
system.cpu00.fetch.Branches                    133302                       # Number of branches that fetch encountered
system.cpu00.fetch.predictedBranches            96116                       # Number of branches that fetch has predicted taken
system.cpu00.fetch.Cycles                      728080                       # Number of cycles fetch has run and was not squashing or blocked
system.cpu00.fetch.SquashCycles                 12784                       # Number of cycles fetch has spent squashing
system.cpu00.fetch.MiscStallCycles                413                       # Number of cycles fetch has spent waiting on interrupts, or bad addresses, or out of MSHRs
system.cpu00.fetch.PendingTrapStallCycles         6329                       # Number of stall cycles due to pending traps
system.cpu00.fetch.IcacheWaitRetryStallCycles          647                       # Number of stall cycles due to full MSHR
system.cpu00.fetch.CacheLines                  149816                       # Number of cache lines fetched
system.cpu00.fetch.IcacheSquashes                2605                       # Number of outstanding Icache misses that were squashed
system.cpu00.fetch.rateDist::samples           819804                       # Number of instructions fetched each cycle (Total)
system.cpu00.fetch.rateDist::mean            1.455814                       # Number of instructions fetched each cycle (Total)
system.cpu00.fetch.rateDist::stdev           2.718562                       # Number of instructions fetched each cycle (Total)
system.cpu00.fetch.rateDist::underflows             0      0.00%      0.00% # Number of instructions fetched each cycle (Total)
system.cpu00.fetch.rateDist::0                 600351     73.23%     73.23% # Number of instructions fetched each cycle (Total)
system.cpu00.fetch.rateDist::1                  16422      2.00%     75.23% # Number of instructions fetched each cycle (Total)
system.cpu00.fetch.rateDist::2                  18640      2.27%     77.51% # Number of instructions fetched each cycle (Total)
system.cpu00.fetch.rateDist::3                  17425      2.13%     79.63% # Number of instructions fetched each cycle (Total)
system.cpu00.fetch.rateDist::4                  37665      4.59%     84.23% # Number of instructions fetched each cycle (Total)
system.cpu00.fetch.rateDist::5                  16053      1.96%     86.19% # Number of instructions fetched each cycle (Total)
system.cpu00.fetch.rateDist::6                  18861      2.30%     88.49% # Number of instructions fetched each cycle (Total)
system.cpu00.fetch.rateDist::7                  11682      1.42%     89.91% # Number of instructions fetched each cycle (Total)
system.cpu00.fetch.rateDist::8                  82705     10.09%    100.00% # Number of instructions fetched each cycle (Total)
system.cpu00.fetch.rateDist::overflows              0      0.00%    100.00% # Number of instructions fetched each cycle (Total)
system.cpu00.fetch.rateDist::min_value              0                       # Number of instructions fetched each cycle (Total)
system.cpu00.fetch.rateDist::max_value              8                       # Number of instructions fetched each cycle (Total)
system.cpu00.fetch.rateDist::total             819804                       # Number of instructions fetched each cycle (Total)
system.cpu00.fetch.branchRate                0.130129                       # Number of branch fetches per cycle
system.cpu00.fetch.rate                      1.165072                       # Number of inst fetches per cycle
system.cpu00.decode.IdleCycles                  86788                       # Number of cycles decode is idle
system.cpu00.decode.BlockedCycles              565665                       # Number of cycles decode is blocked
system.cpu00.decode.RunCycles                  128083                       # Number of cycles decode is running
system.cpu00.decode.UnblockCycles               34615                       # Number of cycles decode is unblocking
system.cpu00.decode.SquashCycles                 4653                       # Number of cycles decode is squashing
system.cpu00.decode.BranchResolved              26433                       # Number of times decode resolved a branch
system.cpu00.decode.BranchMispred                1790                       # Number of times decode detected a branch misprediction
system.cpu00.decode.DecodedInsts              1125736                       # Number of instructions handled by decode
system.cpu00.decode.SquashedInsts                7275                       # Number of squashed instructions handled by decode
system.cpu00.rename.SquashCycles                 4653                       # Number of cycles rename is squashing
system.cpu00.rename.IdleCycles                 103042                       # Number of cycles rename is idle
system.cpu00.rename.BlockCycles                101060                       # Number of cycles rename is blocking
system.cpu00.rename.serializeStallCycles       220242                       # count of cycles rename stalled for serializing inst
system.cpu00.rename.RunCycles                  146396                       # Number of cycles rename is running
system.cpu00.rename.UnblockCycles              244411                       # Number of cycles rename is unblocking
system.cpu00.rename.RenamedInsts              1105877                       # Number of instructions processed by rename
system.cpu00.rename.ROBFullEvents                2993                       # Number of times rename has blocked due to ROB full
system.cpu00.rename.IQFullEvents                24677                       # Number of times rename has blocked due to IQ full
system.cpu00.rename.LQFullEvents                 1968                       # Number of times rename has blocked due to LQ full
system.cpu00.rename.SQFullEvents               207348                       # Number of times rename has blocked due to SQ full
system.cpu00.rename.RenamedOperands            758357                       # Number of destination operands rename has renamed
system.cpu00.rename.RenameLookups             1369755                       # Number of register rename lookups that rename has made
system.cpu00.rename.int_rename_lookups        1211825                       # Number of integer rename lookups
system.cpu00.rename.fp_rename_lookups          155643                       # Number of floating rename lookups
system.cpu00.rename.CommittedMaps              668767                       # Number of HB maps that are committed
system.cpu00.rename.UndoneMaps                  89590                       # Number of HB maps that are undone due to squashing
system.cpu00.rename.serializingInsts             4088                       # count of serializing insts renamed
system.cpu00.rename.tempSerializingInsts         1721                       # count of temporary serializing insts renamed
system.cpu00.rename.skidInsts                  154750                       # count of insts added to the skid buffer
system.cpu00.memDep0.insertedLoads             179675                       # Number of loads inserted to the mem dependence unit.
system.cpu00.memDep0.insertedStores            135481                       # Number of stores inserted to the mem dependence unit.
system.cpu00.memDep0.conflictingLoads           32066                       # Number of conflicting loads.
system.cpu00.memDep0.conflictingStores          12404                       # Number of conflicting stores.
system.cpu00.iq.iqInstsAdded                   969431                       # Number of instructions added to the IQ (excludes non-spec)
system.cpu00.iq.iqNonSpecInstsAdded              2816                       # Number of non-speculative instructions added to the IQ
system.cpu00.iq.iqInstsIssued                  953624                       # Number of instructions issued
system.cpu00.iq.iqSquashedInstsIssued            1791                       # Number of squashed instructions issued
system.cpu00.iq.iqSquashedInstsExamined        102454                       # Number of squashed instructions iterated over during squash; mainly for profiling
system.cpu00.iq.iqSquashedOperandsExamined        51977                       # Number of squashed operands that are examined and possibly removed from graph
system.cpu00.iq.iqSquashedNonSpecRemoved          446                       # Number of squashed non-spec instructions that were removed
system.cpu00.iq.issued_per_cycle::samples       819804                       # Number of insts issued each cycle
system.cpu00.iq.issued_per_cycle::mean       1.163234                       # Number of insts issued each cycle
system.cpu00.iq.issued_per_cycle::stdev      1.925094                       # Number of insts issued each cycle
system.cpu00.iq.issued_per_cycle::underflows            0      0.00%      0.00% # Number of insts issued each cycle
system.cpu00.iq.issued_per_cycle::0            519241     63.34%     63.34% # Number of insts issued each cycle
system.cpu00.iq.issued_per_cycle::1             74862      9.13%     72.47% # Number of insts issued each cycle
system.cpu00.iq.issued_per_cycle::2             62369      7.61%     80.08% # Number of insts issued each cycle
system.cpu00.iq.issued_per_cycle::3             45374      5.53%     85.61% # Number of insts issued each cycle
system.cpu00.iq.issued_per_cycle::4             43731      5.33%     90.95% # Number of insts issued each cycle
system.cpu00.iq.issued_per_cycle::5             29132      3.55%     94.50% # Number of insts issued each cycle
system.cpu00.iq.issued_per_cycle::6             26158      3.19%     97.69% # Number of insts issued each cycle
system.cpu00.iq.issued_per_cycle::7             11126      1.36%     99.05% # Number of insts issued each cycle
system.cpu00.iq.issued_per_cycle::8              7811      0.95%    100.00% # Number of insts issued each cycle
system.cpu00.iq.issued_per_cycle::overflows            0      0.00%    100.00% # Number of insts issued each cycle
system.cpu00.iq.issued_per_cycle::min_value            0                       # Number of insts issued each cycle
system.cpu00.iq.issued_per_cycle::max_value            8                       # Number of insts issued each cycle
system.cpu00.iq.issued_per_cycle::total        819804                       # Number of insts issued each cycle
system.cpu00.iq.fu_full::No_OpClass                 0      0.00%      0.00% # attempts to use FU when none available
system.cpu00.iq.fu_full::IntAlu                  4809     15.57%     15.57% # attempts to use FU when none available
system.cpu00.iq.fu_full::IntMult                 4097     13.27%     28.84% # attempts to use FU when none available
system.cpu00.iq.fu_full::IntDiv                     0      0.00%     28.84% # attempts to use FU when none available
system.cpu00.iq.fu_full::FloatAdd                  68      0.22%     29.06% # attempts to use FU when none available
system.cpu00.iq.fu_full::FloatCmp                   0      0.00%     29.06% # attempts to use FU when none available
system.cpu00.iq.fu_full::FloatCvt                   0      0.00%     29.06% # attempts to use FU when none available
system.cpu00.iq.fu_full::FloatMult               5995     19.41%     48.47% # attempts to use FU when none available
system.cpu00.iq.fu_full::FloatDiv                   0      0.00%     48.47% # attempts to use FU when none available
system.cpu00.iq.fu_full::FloatSqrt                  0      0.00%     48.47% # attempts to use FU when none available
system.cpu00.iq.fu_full::SimdAdd                    0      0.00%     48.47% # attempts to use FU when none available
system.cpu00.iq.fu_full::SimdAddAcc                 0      0.00%     48.47% # attempts to use FU when none available
system.cpu00.iq.fu_full::SimdAlu                    0      0.00%     48.47% # attempts to use FU when none available
system.cpu00.iq.fu_full::SimdCmp                    0      0.00%     48.47% # attempts to use FU when none available
system.cpu00.iq.fu_full::SimdCvt                    0      0.00%     48.47% # attempts to use FU when none available
system.cpu00.iq.fu_full::SimdMisc                   0      0.00%     48.47% # attempts to use FU when none available
system.cpu00.iq.fu_full::SimdMult                   0      0.00%     48.47% # attempts to use FU when none available
system.cpu00.iq.fu_full::SimdMultAcc                0      0.00%     48.47% # attempts to use FU when none available
system.cpu00.iq.fu_full::SimdShift                  0      0.00%     48.47% # attempts to use FU when none available
system.cpu00.iq.fu_full::SimdShiftAcc               0      0.00%     48.47% # attempts to use FU when none available
system.cpu00.iq.fu_full::SimdSqrt                   0      0.00%     48.47% # attempts to use FU when none available
system.cpu00.iq.fu_full::SimdFloatAdd               0      0.00%     48.47% # attempts to use FU when none available
system.cpu00.iq.fu_full::SimdFloatAlu               0      0.00%     48.47% # attempts to use FU when none available
system.cpu00.iq.fu_full::SimdFloatCmp               0      0.00%     48.47% # attempts to use FU when none available
system.cpu00.iq.fu_full::SimdFloatCvt               0      0.00%     48.47% # attempts to use FU when none available
system.cpu00.iq.fu_full::SimdFloatDiv               0      0.00%     48.47% # attempts to use FU when none available
system.cpu00.iq.fu_full::SimdFloatMisc              0      0.00%     48.47% # attempts to use FU when none available
system.cpu00.iq.fu_full::SimdFloatMult              0      0.00%     48.47% # attempts to use FU when none available
system.cpu00.iq.fu_full::SimdFloatMultAcc            0      0.00%     48.47% # attempts to use FU when none available
system.cpu00.iq.fu_full::SimdFloatSqrt              0      0.00%     48.47% # attempts to use FU when none available
system.cpu00.iq.fu_full::MemRead                 9761     31.61%     80.08% # attempts to use FU when none available
system.cpu00.iq.fu_full::MemWrite                6150     19.92%    100.00% # attempts to use FU when none available
system.cpu00.iq.fu_full::IprAccess                  0      0.00%    100.00% # attempts to use FU when none available
system.cpu00.iq.fu_full::InstPrefetch               0      0.00%    100.00% # attempts to use FU when none available
system.cpu00.iq.FU_type_0::No_OpClass               0      0.00%      0.00% # Type of FU issued
system.cpu00.iq.FU_type_0::IntAlu              551122     57.79%     57.79% # Type of FU issued
system.cpu00.iq.FU_type_0::IntMult              12786      1.34%     59.13% # Type of FU issued
system.cpu00.iq.FU_type_0::IntDiv                   0      0.00%     59.13% # Type of FU issued
system.cpu00.iq.FU_type_0::FloatAdd             35718      3.75%     62.88% # Type of FU issued
system.cpu00.iq.FU_type_0::FloatCmp                 8      0.00%     62.88% # Type of FU issued
system.cpu00.iq.FU_type_0::FloatCvt                 0      0.00%     62.88% # Type of FU issued
system.cpu00.iq.FU_type_0::FloatMult            37103      3.89%     66.77% # Type of FU issued
system.cpu00.iq.FU_type_0::FloatDiv                16      0.00%     66.77% # Type of FU issued
system.cpu00.iq.FU_type_0::FloatSqrt                0      0.00%     66.77% # Type of FU issued
system.cpu00.iq.FU_type_0::SimdAdd                  0      0.00%     66.77% # Type of FU issued
system.cpu00.iq.FU_type_0::SimdAddAcc               0      0.00%     66.77% # Type of FU issued
system.cpu00.iq.FU_type_0::SimdAlu                  0      0.00%     66.77% # Type of FU issued
system.cpu00.iq.FU_type_0::SimdCmp                  0      0.00%     66.77% # Type of FU issued
system.cpu00.iq.FU_type_0::SimdCvt                  0      0.00%     66.77% # Type of FU issued
system.cpu00.iq.FU_type_0::SimdMisc                 0      0.00%     66.77% # Type of FU issued
system.cpu00.iq.FU_type_0::SimdMult                 0      0.00%     66.77% # Type of FU issued
system.cpu00.iq.FU_type_0::SimdMultAcc              0      0.00%     66.77% # Type of FU issued
system.cpu00.iq.FU_type_0::SimdShift                0      0.00%     66.77% # Type of FU issued
system.cpu00.iq.FU_type_0::SimdShiftAcc             0      0.00%     66.77% # Type of FU issued
system.cpu00.iq.FU_type_0::SimdSqrt                 0      0.00%     66.77% # Type of FU issued
system.cpu00.iq.FU_type_0::SimdFloatAdd             0      0.00%     66.77% # Type of FU issued
system.cpu00.iq.FU_type_0::SimdFloatAlu             0      0.00%     66.77% # Type of FU issued
system.cpu00.iq.FU_type_0::SimdFloatCmp             0      0.00%     66.77% # Type of FU issued
system.cpu00.iq.FU_type_0::SimdFloatCvt             0      0.00%     66.77% # Type of FU issued
system.cpu00.iq.FU_type_0::SimdFloatDiv             0      0.00%     66.77% # Type of FU issued
system.cpu00.iq.FU_type_0::SimdFloatMisc            0      0.00%     66.77% # Type of FU issued
system.cpu00.iq.FU_type_0::SimdFloatMult            0      0.00%     66.77% # Type of FU issued
system.cpu00.iq.FU_type_0::SimdFloatMultAcc            0      0.00%     66.77% # Type of FU issued
system.cpu00.iq.FU_type_0::SimdFloatSqrt            0      0.00%     66.77% # Type of FU issued
system.cpu00.iq.FU_type_0::MemRead             186391     19.55%     86.32% # Type of FU issued
system.cpu00.iq.FU_type_0::MemWrite            130480     13.68%    100.00% # Type of FU issued
system.cpu00.iq.FU_type_0::IprAccess                0      0.00%    100.00% # Type of FU issued
system.cpu00.iq.FU_type_0::InstPrefetch             0      0.00%    100.00% # Type of FU issued
system.cpu00.iq.FU_type_0::total               953624                       # Type of FU issued
system.cpu00.iq.rate                         0.930923                       # Inst issue rate
system.cpu00.iq.fu_busy_cnt                     30880                       # FU busy when requested
system.cpu00.iq.fu_busy_rate                 0.032382                       # FU busy rate (busy events/executed inst)
system.cpu00.iq.int_inst_queue_reads          2516132                       # Number of integer instruction queue reads
system.cpu00.iq.int_inst_queue_writes          951903                       # Number of integer instruction queue writes
system.cpu00.iq.int_inst_queue_wakeup_accesses       813883                       # Number of integer instruction queue wakeup accesses
system.cpu00.iq.fp_inst_queue_reads            243591                       # Number of floating instruction queue reads
system.cpu00.iq.fp_inst_queue_writes           123218                       # Number of floating instruction queue writes
system.cpu00.iq.fp_inst_queue_wakeup_accesses       116949                       # Number of floating instruction queue wakeup accesses
system.cpu00.iq.int_alu_accesses               859338                       # Number of integer alu accesses
system.cpu00.iq.fp_alu_accesses                125166                       # Number of floating point alu accesses
system.cpu00.iew.lsq.thread0.forwLoads          21365                       # Number of loads that had data forwarded from stores
system.cpu00.iew.lsq.thread0.invAddrLoads            0                       # Number of loads ignored due to an invalid address
system.cpu00.iew.lsq.thread0.squashedLoads        18728                       # Number of loads squashed
system.cpu00.iew.lsq.thread0.ignoredResponses           96                       # Number of memory responses ignored because the instruction is squashed
system.cpu00.iew.lsq.thread0.memOrderViolation          430                       # Number of memory ordering violations
system.cpu00.iew.lsq.thread0.squashedStores        15964                       # Number of stores squashed
system.cpu00.iew.lsq.thread0.invAddrSwpfs            0                       # Number of software prefetches ignored due to an invalid address
system.cpu00.iew.lsq.thread0.blockedLoads            0                       # Number of blocked loads due to partial load-store forwarding
system.cpu00.iew.lsq.thread0.rescheduledLoads          221                       # Number of loads that were rescheduled
system.cpu00.iew.lsq.thread0.cacheBlocked        11874                       # Number of times an access to memory failed due to the cache being blocked
system.cpu00.iew.iewIdleCycles                      0                       # Number of cycles IEW is idle
system.cpu00.iew.iewSquashCycles                 4653                       # Number of cycles IEW is squashing
system.cpu00.iew.iewBlockCycles                 22512                       # Number of cycles IEW is blocking
system.cpu00.iew.iewUnblockCycles               69425                       # Number of cycles IEW is unblocking
system.cpu00.iew.iewDispatchedInsts           1079809                       # Number of instructions dispatched to IQ
system.cpu00.iew.iewDispSquashedInsts            1382                       # Number of squashed instructions skipped by dispatch
system.cpu00.iew.iewDispLoadInsts              179675                       # Number of dispatched load instructions
system.cpu00.iew.iewDispStoreInsts             135481                       # Number of dispatched store instructions
system.cpu00.iew.iewDispNonSpecInsts             1637                       # Number of dispatched non-speculative instructions
system.cpu00.iew.iewIQFullEvents                  129                       # Number of times the IQ has become full, causing a stall
system.cpu00.iew.iewLSQFullEvents               69198                       # Number of times the LSQ has become full, causing a stall
system.cpu00.iew.memOrderViolationEvents          430                       # Number of memory order violations
system.cpu00.iew.predictedTakenIncorrect         1606                       # Number of branches that were predicted taken incorrectly
system.cpu00.iew.predictedNotTakenIncorrect         3097                       # Number of branches that were predicted not taken incorrectly
system.cpu00.iew.branchMispredicts               4703                       # Number of branch mispredicts detected at execute
system.cpu00.iew.iewExecutedInsts              946199                       # Number of executed instructions
system.cpu00.iew.iewExecLoadInsts              183201                       # Number of load instructions executed
system.cpu00.iew.iewExecSquashedInsts            7425                       # Number of squashed instructions skipped in execute
system.cpu00.iew.exec_swp                           0                       # number of swp insts executed
system.cpu00.iew.exec_nop                      107562                       # number of nop insts executed
system.cpu00.iew.exec_refs                     312202                       # number of memory reference insts executed
system.cpu00.iew.exec_branches                 110281                       # Number of branches executed
system.cpu00.iew.exec_stores                   129001                       # Number of stores executed
system.cpu00.iew.exec_rate                   0.923675                       # Inst execution rate
system.cpu00.iew.wb_sent                       934052                       # cumulative count of insts sent to commit
system.cpu00.iew.wb_count                      930832                       # cumulative count of insts written-back
system.cpu00.iew.wb_producers                  545904                       # num instructions producing a value
system.cpu00.iew.wb_consumers                  778972                       # num instructions consuming a value
system.cpu00.iew.wb_rate                     0.908674                       # insts written-back per cycle
system.cpu00.iew.wb_fanout                   0.700801                       # average fanout of values written-back
system.cpu00.commit.commitSquashedInsts        106599                       # The number of squashed insts skipped by commit
system.cpu00.commit.commitNonSpecStalls          2370                       # The number of times commit has been forced to stall to communicate backwards
system.cpu00.commit.branchMispredicts            3969                       # The number of times a branch was mispredicted
system.cpu00.commit.committed_per_cycle::samples       803035                       # Number of insts commited each cycle
system.cpu00.commit.committed_per_cycle::mean     1.205914                       # Number of insts commited each cycle
system.cpu00.commit.committed_per_cycle::stdev     2.305787                       # Number of insts commited each cycle
system.cpu00.commit.committed_per_cycle::underflows            0      0.00%      0.00% # Number of insts commited each cycle
system.cpu00.commit.committed_per_cycle::0       554632     69.07%     69.07% # Number of insts commited each cycle
system.cpu00.commit.committed_per_cycle::1        52147      6.49%     75.56% # Number of insts commited each cycle
system.cpu00.commit.committed_per_cycle::2        51118      6.37%     81.93% # Number of insts commited each cycle
system.cpu00.commit.committed_per_cycle::3        29948      3.73%     85.66% # Number of insts commited each cycle
system.cpu00.commit.committed_per_cycle::4        34938      4.35%     90.01% # Number of insts commited each cycle
system.cpu00.commit.committed_per_cycle::5         9082      1.13%     91.14% # Number of insts commited each cycle
system.cpu00.commit.committed_per_cycle::6        12765      1.59%     92.73% # Number of insts commited each cycle
system.cpu00.commit.committed_per_cycle::7         4828      0.60%     93.33% # Number of insts commited each cycle
system.cpu00.commit.committed_per_cycle::8        53577      6.67%    100.00% # Number of insts commited each cycle
system.cpu00.commit.committed_per_cycle::overflows            0      0.00%    100.00% # Number of insts commited each cycle
system.cpu00.commit.committed_per_cycle::min_value            0                       # Number of insts commited each cycle
system.cpu00.commit.committed_per_cycle::max_value            8                       # Number of insts commited each cycle
system.cpu00.commit.committed_per_cycle::total       803035                       # Number of insts commited each cycle
system.cpu00.commit.committedInsts             968391                       # Number of instructions committed
system.cpu00.commit.committedOps               968391                       # Number of ops (including micro ops) committed
system.cpu00.commit.swp_count                       0                       # Number of s/w prefetches committed
system.cpu00.commit.refs                       280464                       # Number of memory references committed
system.cpu00.commit.loads                      160947                       # Number of loads committed
system.cpu00.commit.membars                      1032                       # Number of memory barriers committed
system.cpu00.commit.branches                   100087                       # Number of branches committed
system.cpu00.commit.fp_insts                   116058                       # Number of committed floating point instructions.
system.cpu00.commit.int_insts                  791924                       # Number of committed integer instructions.
system.cpu00.commit.function_calls              22216                       # Number of function calls committed.
system.cpu00.commit.op_class_0::No_OpClass        98599     10.18%     10.18% # Class of committed instruction
system.cpu00.commit.op_class_0::IntAlu         503169     51.96%     62.14% # Class of committed instruction
system.cpu00.commit.op_class_0::IntMult         12689      1.31%     63.45% # Class of committed instruction
system.cpu00.commit.op_class_0::IntDiv              0      0.00%     63.45% # Class of committed instruction
system.cpu00.commit.op_class_0::FloatAdd        35480      3.66%     67.12% # Class of committed instruction
system.cpu00.commit.op_class_0::FloatCmp            8      0.00%     67.12% # Class of committed instruction
system.cpu00.commit.op_class_0::FloatCvt            0      0.00%     67.12% # Class of committed instruction
system.cpu00.commit.op_class_0::FloatMult        36935      3.81%     70.93% # Class of committed instruction
system.cpu00.commit.op_class_0::FloatDiv           14      0.00%     70.93% # Class of committed instruction
system.cpu00.commit.op_class_0::FloatSqrt            0      0.00%     70.93% # Class of committed instruction
system.cpu00.commit.op_class_0::SimdAdd             0      0.00%     70.93% # Class of committed instruction
system.cpu00.commit.op_class_0::SimdAddAcc            0      0.00%     70.93% # Class of committed instruction
system.cpu00.commit.op_class_0::SimdAlu             0      0.00%     70.93% # Class of committed instruction
system.cpu00.commit.op_class_0::SimdCmp             0      0.00%     70.93% # Class of committed instruction
system.cpu00.commit.op_class_0::SimdCvt             0      0.00%     70.93% # Class of committed instruction
system.cpu00.commit.op_class_0::SimdMisc            0      0.00%     70.93% # Class of committed instruction
system.cpu00.commit.op_class_0::SimdMult            0      0.00%     70.93% # Class of committed instruction
system.cpu00.commit.op_class_0::SimdMultAcc            0      0.00%     70.93% # Class of committed instruction
system.cpu00.commit.op_class_0::SimdShift            0      0.00%     70.93% # Class of committed instruction
system.cpu00.commit.op_class_0::SimdShiftAcc            0      0.00%     70.93% # Class of committed instruction
system.cpu00.commit.op_class_0::SimdSqrt            0      0.00%     70.93% # Class of committed instruction
system.cpu00.commit.op_class_0::SimdFloatAdd            0      0.00%     70.93% # Class of committed instruction
system.cpu00.commit.op_class_0::SimdFloatAlu            0      0.00%     70.93% # Class of committed instruction
system.cpu00.commit.op_class_0::SimdFloatCmp            0      0.00%     70.93% # Class of committed instruction
system.cpu00.commit.op_class_0::SimdFloatCvt            0      0.00%     70.93% # Class of committed instruction
system.cpu00.commit.op_class_0::SimdFloatDiv            0      0.00%     70.93% # Class of committed instruction
system.cpu00.commit.op_class_0::SimdFloatMisc            0      0.00%     70.93% # Class of committed instruction
system.cpu00.commit.op_class_0::SimdFloatMult            0      0.00%     70.93% # Class of committed instruction
system.cpu00.commit.op_class_0::SimdFloatMultAcc            0      0.00%     70.93% # Class of committed instruction
system.cpu00.commit.op_class_0::SimdFloatSqrt            0      0.00%     70.93% # Class of committed instruction
system.cpu00.commit.op_class_0::MemRead        161979     16.73%     87.66% # Class of committed instruction
system.cpu00.commit.op_class_0::MemWrite       119518     12.34%    100.00% # Class of committed instruction
system.cpu00.commit.op_class_0::IprAccess            0      0.00%    100.00% # Class of committed instruction
system.cpu00.commit.op_class_0::InstPrefetch            0      0.00%    100.00% # Class of committed instruction
system.cpu00.commit.op_class_0::total          968391                       # Class of committed instruction
system.cpu00.commit.bw_lim_events               53577                       # number cycles where commit BW limit reached
system.cpu00.rob.rob_reads                    1820457                       # The number of ROB reads
system.cpu00.rob.rob_writes                   2166875                       # The number of ROB writes
system.cpu00.timesIdled                          1448                       # Number of times that the entire CPU went into an idle state and unscheduled itself
system.cpu00.idleCycles                        204581                       # Total number of cycles that the CPU has spent unscheduled due to idling
system.cpu00.quiesceCycles                      83058                       # Total number of cycles that CPU has spent quiesced or waiting for an interrupt
system.cpu00.committedInsts                    869792                       # Number of Instructions Simulated
system.cpu00.committedOps                      869792                       # Number of Ops (including micro ops) Simulated
system.cpu00.cpi                             1.177736                       # CPI: Cycles Per Instruction
system.cpu00.cpi_total                       1.177736                       # CPI: Total CPI of All Threads
system.cpu00.ipc                             0.849087                       # IPC: Instructions Per Cycle
system.cpu00.ipc_total                       0.849087                       # IPC: Total IPC of All Threads
system.cpu00.int_regfile_reads                1142774                       # number of integer regfile reads
system.cpu00.int_regfile_writes                612532                       # number of integer regfile writes
system.cpu00.fp_regfile_reads                  151789                       # number of floating regfile reads
system.cpu00.fp_regfile_writes                 102882                       # number of floating regfile writes
system.cpu00.misc_regfile_reads                  4737                       # number of misc regfile reads
system.cpu00.misc_regfile_writes                 2251                       # number of misc regfile writes
system.cpu00.dcache.tags.replacements           17329                       # number of replacements
system.cpu00.dcache.tags.tagsinuse          62.954514                       # Cycle average of tags in use
system.cpu00.dcache.tags.total_refs            219243                       # Total number of references to valid blocks.
system.cpu00.dcache.tags.sampled_refs           17393                       # Sample count of references to valid blocks.
system.cpu00.dcache.tags.avg_refs           12.605243                       # Average number of references to valid blocks.
system.cpu00.dcache.tags.warmup_cycle        61602660                       # Cycle when the warmup percentage was hit.
system.cpu00.dcache.tags.occ_blocks::cpu00.data    62.954514                       # Average occupied blocks per requestor
system.cpu00.dcache.tags.occ_percent::cpu00.data     0.983664                       # Average percentage of cache occupancy
system.cpu00.dcache.tags.occ_percent::total     0.983664                       # Average percentage of cache occupancy
system.cpu00.dcache.tags.occ_task_id_blocks::1024           64                       # Occupied blocks per task id
system.cpu00.dcache.tags.age_task_id_blocks_1024::0           55                       # Occupied blocks per task id
system.cpu00.dcache.tags.age_task_id_blocks_1024::1            9                       # Occupied blocks per task id
system.cpu00.dcache.tags.occ_task_id_percent::1024            1                       # Percentage of cache occupancy per task id
system.cpu00.dcache.tags.tag_accesses          559351                       # Number of tag accesses
system.cpu00.dcache.tags.data_accesses         559351                       # Number of data accesses
system.cpu00.dcache.ReadReq_hits::cpu00.data       136191                       # number of ReadReq hits
system.cpu00.dcache.ReadReq_hits::total        136191                       # number of ReadReq hits
system.cpu00.dcache.WriteReq_hits::cpu00.data        81017                       # number of WriteReq hits
system.cpu00.dcache.WriteReq_hits::total        81017                       # number of WriteReq hits
system.cpu00.dcache.LoadLockedReq_hits::cpu00.data          841                       # number of LoadLockedReq hits
system.cpu00.dcache.LoadLockedReq_hits::total          841                       # number of LoadLockedReq hits
system.cpu00.dcache.StoreCondReq_hits::cpu00.data         1112                       # number of StoreCondReq hits
system.cpu00.dcache.StoreCondReq_hits::total         1112                       # number of StoreCondReq hits
system.cpu00.dcache.demand_hits::cpu00.data       217208                       # number of demand (read+write) hits
system.cpu00.dcache.demand_hits::total         217208                       # number of demand (read+write) hits
system.cpu00.dcache.overall_hits::cpu00.data       217208                       # number of overall hits
system.cpu00.dcache.overall_hits::total        217208                       # number of overall hits
system.cpu00.dcache.ReadReq_misses::cpu00.data        14011                       # number of ReadReq misses
system.cpu00.dcache.ReadReq_misses::total        14011                       # number of ReadReq misses
system.cpu00.dcache.WriteReq_misses::cpu00.data        37378                       # number of WriteReq misses
system.cpu00.dcache.WriteReq_misses::total        37378                       # number of WriteReq misses
system.cpu00.dcache.LoadLockedReq_misses::cpu00.data          362                       # number of LoadLockedReq misses
system.cpu00.dcache.LoadLockedReq_misses::total          362                       # number of LoadLockedReq misses
system.cpu00.dcache.StoreCondReq_misses::cpu00.data           10                       # number of StoreCondReq misses
system.cpu00.dcache.StoreCondReq_misses::total           10                       # number of StoreCondReq misses
system.cpu00.dcache.demand_misses::cpu00.data        51389                       # number of demand (read+write) misses
system.cpu00.dcache.demand_misses::total        51389                       # number of demand (read+write) misses
system.cpu00.dcache.overall_misses::cpu00.data        51389                       # number of overall misses
system.cpu00.dcache.overall_misses::total        51389                       # number of overall misses
system.cpu00.dcache.ReadReq_miss_latency::cpu00.data    469984410                       # number of ReadReq miss cycles
system.cpu00.dcache.ReadReq_miss_latency::total    469984410                       # number of ReadReq miss cycles
system.cpu00.dcache.WriteReq_miss_latency::cpu00.data   5390600103                       # number of WriteReq miss cycles
system.cpu00.dcache.WriteReq_miss_latency::total   5390600103                       # number of WriteReq miss cycles
system.cpu00.dcache.LoadLockedReq_miss_latency::cpu00.data      3209004                       # number of LoadLockedReq miss cycles
system.cpu00.dcache.LoadLockedReq_miss_latency::total      3209004                       # number of LoadLockedReq miss cycles
system.cpu00.dcache.StoreCondReq_miss_latency::cpu00.data       312309                       # number of StoreCondReq miss cycles
system.cpu00.dcache.StoreCondReq_miss_latency::total       312309                       # number of StoreCondReq miss cycles
system.cpu00.dcache.demand_miss_latency::cpu00.data   5860584513                       # number of demand (read+write) miss cycles
system.cpu00.dcache.demand_miss_latency::total   5860584513                       # number of demand (read+write) miss cycles
system.cpu00.dcache.overall_miss_latency::cpu00.data   5860584513                       # number of overall miss cycles
system.cpu00.dcache.overall_miss_latency::total   5860584513                       # number of overall miss cycles
system.cpu00.dcache.ReadReq_accesses::cpu00.data       150202                       # number of ReadReq accesses(hits+misses)
system.cpu00.dcache.ReadReq_accesses::total       150202                       # number of ReadReq accesses(hits+misses)
system.cpu00.dcache.WriteReq_accesses::cpu00.data       118395                       # number of WriteReq accesses(hits+misses)
system.cpu00.dcache.WriteReq_accesses::total       118395                       # number of WriteReq accesses(hits+misses)
system.cpu00.dcache.LoadLockedReq_accesses::cpu00.data         1203                       # number of LoadLockedReq accesses(hits+misses)
system.cpu00.dcache.LoadLockedReq_accesses::total         1203                       # number of LoadLockedReq accesses(hits+misses)
system.cpu00.dcache.StoreCondReq_accesses::cpu00.data         1122                       # number of StoreCondReq accesses(hits+misses)
system.cpu00.dcache.StoreCondReq_accesses::total         1122                       # number of StoreCondReq accesses(hits+misses)
system.cpu00.dcache.demand_accesses::cpu00.data       268597                       # number of demand (read+write) accesses
system.cpu00.dcache.demand_accesses::total       268597                       # number of demand (read+write) accesses
system.cpu00.dcache.overall_accesses::cpu00.data       268597                       # number of overall (read+write) accesses
system.cpu00.dcache.overall_accesses::total       268597                       # number of overall (read+write) accesses
system.cpu00.dcache.ReadReq_miss_rate::cpu00.data     0.093281                       # miss rate for ReadReq accesses
system.cpu00.dcache.ReadReq_miss_rate::total     0.093281                       # miss rate for ReadReq accesses
system.cpu00.dcache.WriteReq_miss_rate::cpu00.data     0.315706                       # miss rate for WriteReq accesses
system.cpu00.dcache.WriteReq_miss_rate::total     0.315706                       # miss rate for WriteReq accesses
system.cpu00.dcache.LoadLockedReq_miss_rate::cpu00.data     0.300914                       # miss rate for LoadLockedReq accesses
system.cpu00.dcache.LoadLockedReq_miss_rate::total     0.300914                       # miss rate for LoadLockedReq accesses
system.cpu00.dcache.StoreCondReq_miss_rate::cpu00.data     0.008913                       # miss rate for StoreCondReq accesses
system.cpu00.dcache.StoreCondReq_miss_rate::total     0.008913                       # miss rate for StoreCondReq accesses
system.cpu00.dcache.demand_miss_rate::cpu00.data     0.191324                       # miss rate for demand accesses
system.cpu00.dcache.demand_miss_rate::total     0.191324                       # miss rate for demand accesses
system.cpu00.dcache.overall_miss_rate::cpu00.data     0.191324                       # miss rate for overall accesses
system.cpu00.dcache.overall_miss_rate::total     0.191324                       # miss rate for overall accesses
system.cpu00.dcache.ReadReq_avg_miss_latency::cpu00.data 33543.959032                       # average ReadReq miss latency
system.cpu00.dcache.ReadReq_avg_miss_latency::total 33543.959032                       # average ReadReq miss latency
system.cpu00.dcache.WriteReq_avg_miss_latency::cpu00.data 144218.527021                       # average WriteReq miss latency
system.cpu00.dcache.WriteReq_avg_miss_latency::total 144218.527021                       # average WriteReq miss latency
system.cpu00.dcache.LoadLockedReq_avg_miss_latency::cpu00.data  8864.651934                       # average LoadLockedReq miss latency
system.cpu00.dcache.LoadLockedReq_avg_miss_latency::total  8864.651934                       # average LoadLockedReq miss latency
system.cpu00.dcache.StoreCondReq_avg_miss_latency::cpu00.data 31230.900000                       # average StoreCondReq miss latency
system.cpu00.dcache.StoreCondReq_avg_miss_latency::total 31230.900000                       # average StoreCondReq miss latency
system.cpu00.dcache.demand_avg_miss_latency::cpu00.data 114043.560159                       # average overall miss latency
system.cpu00.dcache.demand_avg_miss_latency::total 114043.560159                       # average overall miss latency
system.cpu00.dcache.overall_avg_miss_latency::cpu00.data 114043.560159                       # average overall miss latency
system.cpu00.dcache.overall_avg_miss_latency::total 114043.560159                       # average overall miss latency
system.cpu00.dcache.blocked_cycles::no_mshrs       160082                       # number of cycles access was blocked
system.cpu00.dcache.blocked_cycles::no_targets            0                       # number of cycles access was blocked
system.cpu00.dcache.blocked::no_mshrs            3544                       # number of cycles access was blocked
system.cpu00.dcache.blocked::no_targets             0                       # number of cycles access was blocked
system.cpu00.dcache.avg_blocked_cycles::no_mshrs    45.169865                       # average number of cycles each access was blocked
system.cpu00.dcache.avg_blocked_cycles::no_targets          nan                       # average number of cycles each access was blocked
system.cpu00.dcache.fast_writes                     0                       # number of fast writes performed
system.cpu00.dcache.cache_copies                    0                       # number of cache copies performed
system.cpu00.dcache.writebacks::writebacks        12826                       # number of writebacks
system.cpu00.dcache.writebacks::total           12826                       # number of writebacks
system.cpu00.dcache.ReadReq_mshr_hits::cpu00.data         4390                       # number of ReadReq MSHR hits
system.cpu00.dcache.ReadReq_mshr_hits::total         4390                       # number of ReadReq MSHR hits
system.cpu00.dcache.WriteReq_mshr_hits::cpu00.data        29621                       # number of WriteReq MSHR hits
system.cpu00.dcache.WriteReq_mshr_hits::total        29621                       # number of WriteReq MSHR hits
system.cpu00.dcache.LoadLockedReq_mshr_hits::cpu00.data          178                       # number of LoadLockedReq MSHR hits
system.cpu00.dcache.LoadLockedReq_mshr_hits::total          178                       # number of LoadLockedReq MSHR hits
system.cpu00.dcache.demand_mshr_hits::cpu00.data        34011                       # number of demand (read+write) MSHR hits
system.cpu00.dcache.demand_mshr_hits::total        34011                       # number of demand (read+write) MSHR hits
system.cpu00.dcache.overall_mshr_hits::cpu00.data        34011                       # number of overall MSHR hits
system.cpu00.dcache.overall_mshr_hits::total        34011                       # number of overall MSHR hits
system.cpu00.dcache.ReadReq_mshr_misses::cpu00.data         9621                       # number of ReadReq MSHR misses
system.cpu00.dcache.ReadReq_mshr_misses::total         9621                       # number of ReadReq MSHR misses
system.cpu00.dcache.WriteReq_mshr_misses::cpu00.data         7757                       # number of WriteReq MSHR misses
system.cpu00.dcache.WriteReq_mshr_misses::total         7757                       # number of WriteReq MSHR misses
system.cpu00.dcache.LoadLockedReq_mshr_misses::cpu00.data          184                       # number of LoadLockedReq MSHR misses
system.cpu00.dcache.LoadLockedReq_mshr_misses::total          184                       # number of LoadLockedReq MSHR misses
system.cpu00.dcache.StoreCondReq_mshr_misses::cpu00.data            9                       # number of StoreCondReq MSHR misses
system.cpu00.dcache.StoreCondReq_mshr_misses::total            9                       # number of StoreCondReq MSHR misses
system.cpu00.dcache.demand_mshr_misses::cpu00.data        17378                       # number of demand (read+write) MSHR misses
system.cpu00.dcache.demand_mshr_misses::total        17378                       # number of demand (read+write) MSHR misses
system.cpu00.dcache.overall_mshr_misses::cpu00.data        17378                       # number of overall MSHR misses
system.cpu00.dcache.overall_mshr_misses::total        17378                       # number of overall MSHR misses
system.cpu00.dcache.ReadReq_mshr_miss_latency::cpu00.data    266090751                       # number of ReadReq MSHR miss cycles
system.cpu00.dcache.ReadReq_mshr_miss_latency::total    266090751                       # number of ReadReq MSHR miss cycles
system.cpu00.dcache.WriteReq_mshr_miss_latency::cpu00.data   1142167285                       # number of WriteReq MSHR miss cycles
system.cpu00.dcache.WriteReq_mshr_miss_latency::total   1142167285                       # number of WriteReq MSHR miss cycles
system.cpu00.dcache.LoadLockedReq_mshr_miss_latency::cpu00.data      1369980                       # number of LoadLockedReq MSHR miss cycles
system.cpu00.dcache.LoadLockedReq_mshr_miss_latency::total      1369980                       # number of LoadLockedReq MSHR miss cycles
system.cpu00.dcache.StoreCondReq_mshr_miss_latency::cpu00.data       301860                       # number of StoreCondReq MSHR miss cycles
system.cpu00.dcache.StoreCondReq_mshr_miss_latency::total       301860                       # number of StoreCondReq MSHR miss cycles
system.cpu00.dcache.demand_mshr_miss_latency::cpu00.data   1408258036                       # number of demand (read+write) MSHR miss cycles
system.cpu00.dcache.demand_mshr_miss_latency::total   1408258036                       # number of demand (read+write) MSHR miss cycles
system.cpu00.dcache.overall_mshr_miss_latency::cpu00.data   1408258036                       # number of overall MSHR miss cycles
system.cpu00.dcache.overall_mshr_miss_latency::total   1408258036                       # number of overall MSHR miss cycles
system.cpu00.dcache.ReadReq_mshr_miss_rate::cpu00.data     0.064054                       # mshr miss rate for ReadReq accesses
system.cpu00.dcache.ReadReq_mshr_miss_rate::total     0.064054                       # mshr miss rate for ReadReq accesses
system.cpu00.dcache.WriteReq_mshr_miss_rate::cpu00.data     0.065518                       # mshr miss rate for WriteReq accesses
system.cpu00.dcache.WriteReq_mshr_miss_rate::total     0.065518                       # mshr miss rate for WriteReq accesses
system.cpu00.dcache.LoadLockedReq_mshr_miss_rate::cpu00.data     0.152951                       # mshr miss rate for LoadLockedReq accesses
system.cpu00.dcache.LoadLockedReq_mshr_miss_rate::total     0.152951                       # mshr miss rate for LoadLockedReq accesses
system.cpu00.dcache.StoreCondReq_mshr_miss_rate::cpu00.data     0.008021                       # mshr miss rate for StoreCondReq accesses
system.cpu00.dcache.StoreCondReq_mshr_miss_rate::total     0.008021                       # mshr miss rate for StoreCondReq accesses
system.cpu00.dcache.demand_mshr_miss_rate::cpu00.data     0.064699                       # mshr miss rate for demand accesses
system.cpu00.dcache.demand_mshr_miss_rate::total     0.064699                       # mshr miss rate for demand accesses
system.cpu00.dcache.overall_mshr_miss_rate::cpu00.data     0.064699                       # mshr miss rate for overall accesses
system.cpu00.dcache.overall_mshr_miss_rate::total     0.064699                       # mshr miss rate for overall accesses
system.cpu00.dcache.ReadReq_avg_mshr_miss_latency::cpu00.data 27657.286249                       # average ReadReq mshr miss latency
system.cpu00.dcache.ReadReq_avg_mshr_miss_latency::total 27657.286249                       # average ReadReq mshr miss latency
system.cpu00.dcache.WriteReq_avg_mshr_miss_latency::cpu00.data 147243.429805                       # average WriteReq mshr miss latency
system.cpu00.dcache.WriteReq_avg_mshr_miss_latency::total 147243.429805                       # average WriteReq mshr miss latency
system.cpu00.dcache.LoadLockedReq_avg_mshr_miss_latency::cpu00.data  7445.543478                       # average LoadLockedReq mshr miss latency
system.cpu00.dcache.LoadLockedReq_avg_mshr_miss_latency::total  7445.543478                       # average LoadLockedReq mshr miss latency
system.cpu00.dcache.StoreCondReq_avg_mshr_miss_latency::cpu00.data        33540                       # average StoreCondReq mshr miss latency
system.cpu00.dcache.StoreCondReq_avg_mshr_miss_latency::total        33540                       # average StoreCondReq mshr miss latency
system.cpu00.dcache.demand_avg_mshr_miss_latency::cpu00.data 81036.830245                       # average overall mshr miss latency
system.cpu00.dcache.demand_avg_mshr_miss_latency::total 81036.830245                       # average overall mshr miss latency
[...]
system.tol2bus.pkt_count_system.cpu06.dcache.mem_side::system.l2.cpu_side         1635                       # Packet count per connected master and slave (bytes)
system.tol2bus.pkt_count_system.cpu07.icache.mem_side::system.l2.cpu_side         2242                       # Packet count per connected master and slave (bytes)
system.tol2bus.pkt_count_system.cpu07.dcache.mem_side::system.l2.cpu_side         2554                       # Packet count per connected master and slave (bytes)
system.tol2bus.pkt_count_system.cpu08.icache.mem_side::system.l2.cpu_side         1553                       # Packet count per connected master and slave (bytes)
system.tol2bus.pkt_count_system.cpu08.dcache.mem_side::system.l2.cpu_side         2285                       # Packet count per connected master and slave (bytes)
system.tol2bus.pkt_count_system.cpu09.icache.mem_side::system.l2.cpu_side         1708                       # Packet count per connected master and slave (bytes)
system.tol2bus.pkt_count_system.cpu09.dcache.mem_side::system.l2.cpu_side         1918                       # Packet count per connected master and slave (bytes)
system.tol2bus.pkt_count_system.cpu10.icache.mem_side::system.l2.cpu_side         1858                       # Packet count per connected master and slave (bytes)
system.tol2bus.pkt_count_system.cpu10.dcache.mem_side::system.l2.cpu_side         2829                       # Packet count per connected master and slave (bytes)
system.tol2bus.pkt_count_system.cpu11.icache.mem_side::system.l2.cpu_side          928                       # Packet count per connected master and slave (bytes)
system.tol2bus.pkt_count_system.cpu11.dcache.mem_side::system.l2.cpu_side         1568                       # Packet count per connected master and slave (bytes)
system.tol2bus.pkt_count_system.cpu12.icache.mem_side::system.l2.cpu_side         2117                       # Packet count per connected master and slave (bytes)
system.tol2bus.pkt_count_system.cpu12.dcache.mem_side::system.l2.cpu_side         3651                       # Packet count per connected master and slave (bytes)
system.tol2bus.pkt_count_system.cpu13.icache.mem_side::system.l2.cpu_side         2791                       # Packet count per connected master and slave (bytes)
system.tol2bus.pkt_count_system.cpu13.dcache.mem_side::system.l2.cpu_side         4752                       # Packet count per connected master and slave (bytes)
system.tol2bus.pkt_count_system.cpu14.icache.mem_side::system.l2.cpu_side         2375                       # Packet count per connected master and slave (bytes)
system.tol2bus.pkt_count_system.cpu14.dcache.mem_side::system.l2.cpu_side         3801                       # Packet count per connected master and slave (bytes)
system.tol2bus.pkt_count_system.cpu15.icache.mem_side::system.l2.cpu_side         1013                       # Packet count per connected master and slave (bytes)
system.tol2bus.pkt_count_system.cpu15.dcache.mem_side::system.l2.cpu_side         1577                       # Packet count per connected master and slave (bytes)
system.tol2bus.pkt_count::total                156813                       # Packet count per connected master and slave (bytes)
system.tol2bus.pkt_size_system.cpu00.icache.mem_side::system.l2.cpu_side       982784                       # Cumulative packet size per connected master and slave (bytes)
system.tol2bus.pkt_size_system.cpu00.dcache.mem_side::system.l2.cpu_side      1918208                       # Cumulative packet size per connected master and slave (bytes)
system.tol2bus.pkt_size_system.cpu01.icache.mem_side::system.l2.cpu_side        83840                       # Cumulative packet size per connected master and slave (bytes)
system.tol2bus.pkt_size_system.cpu01.dcache.mem_side::system.l2.cpu_side       123968                       # Cumulative packet size per connected master and slave (bytes)
system.tol2bus.pkt_size_system.cpu02.icache.mem_side::system.l2.cpu_side       107968                       # Cumulative packet size per connected master and slave (bytes)
system.tol2bus.pkt_size_system.cpu02.dcache.mem_side::system.l2.cpu_side       134720                       # Cumulative packet size per connected master and slave (bytes)
system.tol2bus.pkt_size_system.cpu03.icache.mem_side::system.l2.cpu_side        94720                       # Cumulative packet size per connected master and slave (bytes)
system.tol2bus.pkt_size_system.cpu03.dcache.mem_side::system.l2.cpu_side       112640                       # Cumulative packet size per connected master and slave (bytes)
system.tol2bus.pkt_size_system.cpu04.icache.mem_side::system.l2.cpu_side       106304                       # Cumulative packet size per connected master and slave (bytes)
system.tol2bus.pkt_size_system.cpu04.dcache.mem_side::system.l2.cpu_side       124096                       # Cumulative packet size per connected master and slave (bytes)
system.tol2bus.pkt_size_system.cpu05.icache.mem_side::system.l2.cpu_side       116224                       # Cumulative packet size per connected master and slave (bytes)
system.tol2bus.pkt_size_system.cpu05.dcache.mem_side::system.l2.cpu_side       138944                       # Cumulative packet size per connected master and slave (bytes)
system.tol2bus.pkt_size_system.cpu06.icache.mem_side::system.l2.cpu_side        46528                       # Cumulative packet size per connected master and slave (bytes)
system.tol2bus.pkt_size_system.cpu06.dcache.mem_side::system.l2.cpu_side        52352                       # Cumulative packet size per connected master and slave (bytes)
system.tol2bus.pkt_size_system.cpu07.icache.mem_side::system.l2.cpu_side        85504                       # Cumulative packet size per connected master and slave (bytes)
system.tol2bus.pkt_size_system.cpu07.dcache.mem_side::system.l2.cpu_side        77760                       # Cumulative packet size per connected master and slave (bytes)
system.tol2bus.pkt_size_system.cpu08.icache.mem_side::system.l2.cpu_side        56448                       # Cumulative packet size per connected master and slave (bytes)
system.tol2bus.pkt_size_system.cpu08.dcache.mem_side::system.l2.cpu_side        64128                       # Cumulative packet size per connected master and slave (bytes)
system.tol2bus.pkt_size_system.cpu09.icache.mem_side::system.l2.cpu_side        63040                       # Cumulative packet size per connected master and slave (bytes)
system.tol2bus.pkt_size_system.cpu09.dcache.mem_side::system.l2.cpu_side        58304                       # Cumulative packet size per connected master and slave (bytes)
system.tol2bus.pkt_size_system.cpu10.icache.mem_side::system.l2.cpu_side        69504                       # Cumulative packet size per connected master and slave (bytes)
system.tol2bus.pkt_size_system.cpu10.dcache.mem_side::system.l2.cpu_side        73856                       # Cumulative packet size per connected master and slave (bytes)
system.tol2bus.pkt_size_system.cpu11.icache.mem_side::system.l2.cpu_side        31488                       # Cumulative packet size per connected master and slave (bytes)
system.tol2bus.pkt_size_system.cpu11.dcache.mem_side::system.l2.cpu_side        49024                       # Cumulative packet size per connected master and slave (bytes)
system.tol2bus.pkt_size_system.cpu12.icache.mem_side::system.l2.cpu_side        80192                       # Cumulative packet size per connected master and slave (bytes)
system.tol2bus.pkt_size_system.cpu12.dcache.mem_side::system.l2.cpu_side        93184                       # Cumulative packet size per connected master and slave (bytes)
system.tol2bus.pkt_size_system.cpu13.icache.mem_side::system.l2.cpu_side       108736                       # Cumulative packet size per connected master and slave (bytes)
system.tol2bus.pkt_size_system.cpu13.dcache.mem_side::system.l2.cpu_side       132288                       # Cumulative packet size per connected master and slave (bytes)
system.tol2bus.pkt_size_system.cpu14.icache.mem_side::system.l2.cpu_side        91200                       # Cumulative packet size per connected master and slave (bytes)
system.tol2bus.pkt_size_system.cpu14.dcache.mem_side::system.l2.cpu_side       104960                       # Cumulative packet size per connected master and slave (bytes)
system.tol2bus.pkt_size_system.cpu15.icache.mem_side::system.l2.cpu_side        34880                       # Cumulative packet size per connected master and slave (bytes)
system.tol2bus.pkt_size_system.cpu15.dcache.mem_side::system.l2.cpu_side        53440                       # Cumulative packet size per connected master and slave (bytes)
system.tol2bus.pkt_size::total                5471232                       # Cumulative packet size per connected master and slave (bytes)
system.tol2bus.snoops                            9163                       # Total snoops (count)
system.tol2bus.snoop_fanout::samples            61264                       # Request fanout histogram
system.tol2bus.snoop_fanout::mean            1.993814                       # Request fanout histogram
system.tol2bus.snoop_fanout::stdev           3.650542                       # Request fanout histogram
system.tol2bus.snoop_fanout::underflows             0      0.00%      0.00% # Request fanout histogram
system.tol2bus.snoop_fanout::0                  36497     59.57%     59.57% # Request fanout histogram
system.tol2bus.snoop_fanout::1                   8895     14.52%     74.09% # Request fanout histogram
system.tol2bus.snoop_fanout::2                   2292      3.74%     77.83% # Request fanout histogram
system.tol2bus.snoop_fanout::3                   1499      2.45%     80.28% # Request fanout histogram
system.tol2bus.snoop_fanout::4                   1337      2.18%     82.46% # Request fanout histogram
system.tol2bus.snoop_fanout::5                   1304      2.13%     84.59% # Request fanout histogram
system.tol2bus.snoop_fanout::6                   1248      2.04%     86.63% # Request fanout histogram
system.tol2bus.snoop_fanout::7                   1295      2.11%     88.74% # Request fanout histogram
system.tol2bus.snoop_fanout::8                   1181      1.93%     90.67% # Request fanout histogram
system.tol2bus.snoop_fanout::9                   1073      1.75%     92.42% # Request fanout histogram
system.tol2bus.snoop_fanout::10                   921      1.50%     93.92% # Request fanout histogram
system.tol2bus.snoop_fanout::11                   877      1.43%     95.36% # Request fanout histogram
system.tol2bus.snoop_fanout::12                   896      1.46%     96.82% # Request fanout histogram
system.tol2bus.snoop_fanout::13                   739      1.21%     98.02% # Request fanout histogram
system.tol2bus.snoop_fanout::14                   721      1.18%     99.20% # Request fanout histogram
system.tol2bus.snoop_fanout::15                   487      0.79%    100.00% # Request fanout histogram
system.tol2bus.snoop_fanout::16                     2      0.00%    100.00% # Request fanout histogram
system.tol2bus.snoop_fanout::17                     0      0.00%    100.00% # Request fanout histogram
system.tol2bus.snoop_fanout::18                     0      0.00%    100.00% # Request fanout histogram
system.tol2bus.snoop_fanout::19                     0      0.00%    100.00% # Request fanout histogram
system.tol2bus.snoop_fanout::20                     0      0.00%    100.00% # Request fanout histogram
system.tol2bus.snoop_fanout::21                     0      0.00%    100.00% # Request fanout histogram
system.tol2bus.snoop_fanout::22                     0      0.00%    100.00% # Request fanout histogram
system.tol2bus.snoop_fanout::23                     0      0.00%    100.00% # Request fanout histogram
system.tol2bus.snoop_fanout::24                     0      0.00%    100.00% # Request fanout histogram
system.tol2bus.snoop_fanout::25                     0      0.00%    100.00% # Request fanout histogram
system.tol2bus.snoop_fanout::26                     0      0.00%    100.00% # Request fanout histogram
system.tol2bus.snoop_fanout::27                     0      0.00%    100.00% # Request fanout histogram
system.tol2bus.snoop_fanout::28                     0      0.00%    100.00% # Request fanout histogram
system.tol2bus.snoop_fanout::29                     0      0.00%    100.00% # Request fanout histogram
system.tol2bus.snoop_fanout::30                     0      0.00%    100.00% # Request fanout histogram
system.tol2bus.snoop_fanout::31                     0      0.00%    100.00% # Request fanout histogram
system.tol2bus.snoop_fanout::32                     0      0.00%    100.00% # Request fanout histogram
system.tol2bus.snoop_fanout::overflows              0      0.00%    100.00% # Request fanout histogram
system.tol2bus.snoop_fanout::min_value              0                       # Request fanout histogram
system.tol2bus.snoop_fanout::max_value             16                       # Request fanout histogram
system.tol2bus.snoop_fanout::total              61264                       # Request fanout histogram
system.tol2bus.reqLayer0.occupancy          202701082                       # Layer occupancy (ticks)
system.tol2bus.reqLayer0.utilization             15.8                       # Layer utilization (%)
system.tol2bus.respLayer0.occupancy          28002606                       # Layer occupancy (ticks)
system.tol2bus.respLayer0.utilization             2.2                       # Layer utilization (%)
system.tol2bus.respLayer1.occupancy          61381078                       # Layer occupancy (ticks)
system.tol2bus.respLayer1.utilization             4.8                       # Layer utilization (%)
system.tol2bus.respLayer2.occupancy           3196417                       # Layer occupancy (ticks)
system.tol2bus.respLayer2.utilization             0.2                       # Layer utilization (%)
system.tol2bus.respLayer3.occupancy           6001010                       # Layer occupancy (ticks)
system.tol2bus.respLayer3.utilization             0.5                       # Layer utilization (%)
system.tol2bus.respLayer4.occupancy           3815954                       # Layer occupancy (ticks)
system.tol2bus.respLayer4.utilization             0.3                       # Layer utilization (%)
system.tol2bus.respLayer5.occupancy           7689111                       # Layer occupancy (ticks)
system.tol2bus.respLayer5.utilization             0.6                       # Layer utilization (%)
system.tol2bus.respLayer6.occupancy           3492009                       # Layer occupancy (ticks)
system.tol2bus.respLayer6.utilization             0.3                       # Layer utilization (%)
system.tol2bus.respLayer7.occupancy           5852451                       # Layer occupancy (ticks)
system.tol2bus.respLayer7.utilization             0.5                       # Layer utilization (%)
system.tol2bus.respLayer8.occupancy           3817074                       # Layer occupancy (ticks)
system.tol2bus.respLayer8.utilization             0.3                       # Layer utilization (%)
system.tol2bus.respLayer9.occupancy           7424188                       # Layer occupancy (ticks)
system.tol2bus.respLayer9.utilization             0.6                       # Layer utilization (%)
system.tol2bus.respLayer10.occupancy          4088748                       # Layer occupancy (ticks)
system.tol2bus.respLayer10.utilization            0.3                       # Layer utilization (%)
system.tol2bus.respLayer11.occupancy          7043393                       # Layer occupancy (ticks)
system.tol2bus.respLayer11.utilization            0.5                       # Layer utilization (%)
system.tol2bus.respLayer12.occupancy          2068304                       # Layer occupancy (ticks)
system.tol2bus.respLayer12.utilization            0.2                       # Layer utilization (%)
system.tol2bus.respLayer13.occupancy          2164052                       # Layer occupancy (ticks)
system.tol2bus.respLayer13.utilization            0.2                       # Layer utilization (%)
system.tol2bus.respLayer14.occupancy          3269031                       # Layer occupancy (ticks)
system.tol2bus.respLayer14.utilization            0.3                       # Layer utilization (%)
system.tol2bus.respLayer15.occupancy          3521684                       # Layer occupancy (ticks)
system.tol2bus.respLayer15.utilization            0.3                       # Layer utilization (%)
system.tol2bus.respLayer16.occupancy          2428465                       # Layer occupancy (ticks)
system.tol2bus.respLayer16.utilization            0.2                       # Layer utilization (%)
system.tol2bus.respLayer17.occupancy          2976700                       # Layer occupancy (ticks)
system.tol2bus.respLayer17.utilization            0.2                       # Layer utilization (%)
system.tol2bus.respLayer18.occupancy          2624691                       # Layer occupancy (ticks)
system.tol2bus.respLayer18.utilization            0.2                       # Layer utilization (%)
system.tol2bus.respLayer19.occupancy          2674843                       # Layer occupancy (ticks)
system.tol2bus.respLayer19.utilization            0.2                       # Layer utilization (%)
system.tol2bus.respLayer20.occupancy          2772173                       # Layer occupancy (ticks)
system.tol2bus.respLayer20.utilization            0.2                       # Layer utilization (%)
system.tol2bus.respLayer21.occupancy          4057542                       # Layer occupancy (ticks)
system.tol2bus.respLayer21.utilization            0.3                       # Layer utilization (%)
system.tol2bus.respLayer22.occupancy          1556721                       # Layer occupancy (ticks)
system.tol2bus.respLayer22.utilization            0.1                       # Layer utilization (%)
system.tol2bus.respLayer23.occupancy          2136194                       # Layer occupancy (ticks)
system.tol2bus.respLayer23.utilization            0.2                       # Layer utilization (%)
system.tol2bus.respLayer24.occupancy          3093578                       # Layer occupancy (ticks)
system.tol2bus.respLayer24.utilization            0.2                       # Layer utilization (%)
system.tol2bus.respLayer25.occupancy          5415054                       # Layer occupancy (ticks)
system.tol2bus.respLayer25.utilization            0.4                       # Layer utilization (%)
system.tol2bus.respLayer26.occupancy          3873597                       # Layer occupancy (ticks)
system.tol2bus.respLayer26.utilization            0.3                       # Layer utilization (%)
system.tol2bus.respLayer27.occupancy          6801888                       # Layer occupancy (ticks)
system.tol2bus.respLayer27.utilization            0.5                       # Layer utilization (%)
system.tol2bus.respLayer28.occupancy          3437376                       # Layer occupancy (ticks)
system.tol2bus.respLayer28.utilization            0.3                       # Layer utilization (%)
system.tol2bus.respLayer29.occupancy          5410070                       # Layer occupancy (ticks)
system.tol2bus.respLayer29.utilization            0.4                       # Layer utilization (%)
system.tol2bus.respLayer30.occupancy          1662315                       # Layer occupancy (ticks)
system.tol2bus.respLayer30.utilization            0.1                       # Layer utilization (%)
system.tol2bus.respLayer31.occupancy          2097785                       # Layer occupancy (ticks)
system.tol2bus.respLayer31.utilization            0.2                       # Layer utilization (%)

---------- End Simulation Statistics   ----------
