
---------- Begin Simulation Statistics ----------
sim_seconds                                  0.001282                       # Number of seconds simulated
sim_ticks                                  1281972528                       # Number of ticks simulated
final_tick                                 1281972528                       # Number of ticks from beginning of simulation (restored from checkpoints and never reset)
sim_freq                                 1000000000000                       # Frequency of simulated ticks
host_inst_rate                                 226664                       # Simulator instruction rate (inst/s)
host_op_rate                                   226663                       # Simulator op (including micro ops) rate (op/s)
host_tick_rate                              142115020                       # Simulator tick rate (ticks/s)
host_mem_usage                                 697612                       # Number of bytes of host memory used
host_seconds                                     9.02                       # Real time elapsed on the host
sim_insts                                     2044651                       # Number of instructions simulated
sim_ops                                       2044651                       # Number of ops (including micro ops) simulated
system.voltage_domain.voltage                       1                       # Voltage in Volts
system.clk_domain.clock                          1000                       # Clock period in ticks
system.mem_ctrls.bytes_read::cpu00.inst        119232                       # Number of bytes read from this memory
system.mem_ctrls.bytes_read::cpu00.data        376384                       # Number of bytes read from this memory
system.mem_ctrls.bytes_read::cpu01.inst         10944                       # Number of bytes read from this memory
system.mem_ctrls.bytes_read::cpu01.data          4928                       # Number of bytes read from this memory
system.mem_ctrls.bytes_read::cpu02.inst          1152                       # Number of bytes read from this memory
system.mem_ctrls.bytes_read::cpu02.data          4736                       # Number of bytes read from this memory
system.mem_ctrls.bytes_read::cpu03.inst          1216                       # Number of bytes read from this memory
system.mem_ctrls.bytes_read::cpu03.data          4544                       # Number of bytes read from this memory
system.mem_ctrls.bytes_read::cpu04.inst          1216                       # Number of bytes read from this memory
system.mem_ctrls.bytes_read::cpu04.data          5504                       # Number of bytes read from this memory
system.mem_ctrls.bytes_read::cpu05.inst          1280                       # Number of bytes read from this memory
system.mem_ctrls.bytes_read::cpu05.data          5568                       # Number of bytes read from this memory
system.mem_ctrls.bytes_read::cpu06.inst           384                       # Number of bytes read from this memory
system.mem_ctrls.bytes_read::cpu06.data          4288                       # Number of bytes read from this memory
system.mem_ctrls.bytes_read::cpu07.inst           256                       # Number of bytes read from this memory
system.mem_ctrls.bytes_read::cpu07.data          5376                       # Number of bytes read from this memory
system.mem_ctrls.bytes_read::cpu08.inst          1024                       # Number of bytes read from this memory
system.mem_ctrls.bytes_read::cpu08.data          5440                       # Number of bytes read from this memory
system.mem_ctrls.bytes_read::cpu09.inst           576                       # Number of bytes read from this memory
system.mem_ctrls.bytes_read::cpu09.data          4864                       # Number of bytes read from this memory
system.mem_ctrls.bytes_read::cpu10.inst           256                       # Number of bytes read from this memory
system.mem_ctrls.bytes_read::cpu10.data          4928                       # Number of bytes read from this memory
system.mem_ctrls.bytes_read::cpu11.inst          1600                       # Number of bytes read from this memory
system.mem_ctrls.bytes_read::cpu11.data          5376                       # Number of bytes read from this memory
system.mem_ctrls.bytes_read::cpu12.inst          2752                       # Number of bytes read from this memory
system.mem_ctrls.bytes_read::cpu12.data          5312                       # Number of bytes read from this memory
system.mem_ctrls.bytes_read::cpu13.inst           448                       # Number of bytes read from this memory
system.mem_ctrls.bytes_read::cpu13.data          4480                       # Number of bytes read from this memory
system.mem_ctrls.bytes_read::cpu14.inst          5696                       # Number of bytes read from this memory
system.mem_ctrls.bytes_read::cpu14.data          5504                       # Number of bytes read from this memory
system.mem_ctrls.bytes_read::cpu15.inst           768                       # Number of bytes read from this memory
system.mem_ctrls.bytes_read::cpu15.data          5504                       # Number of bytes read from this memory
system.mem_ctrls.bytes_read::total             601536                       # Number of bytes read from this memory
system.mem_ctrls.bytes_inst_read::cpu00.inst       119232                       # Number of instructions bytes read from this memory
system.mem_ctrls.bytes_inst_read::cpu01.inst        10944                       # Number of instructions bytes read from this memory
system.mem_ctrls.bytes_inst_read::cpu02.inst         1152                       # Number of instructions bytes read from this memory
system.mem_ctrls.bytes_inst_read::cpu03.inst         1216                       # Number of instructions bytes read from this memory
system.mem_ctrls.bytes_inst_read::cpu04.inst         1216                       # Number of instructions bytes read from this memory
system.mem_ctrls.bytes_inst_read::cpu05.inst         1280                       # Number of instructions bytes read from this memory
system.mem_ctrls.bytes_inst_read::cpu06.inst          384                       # Number of instructions bytes read from this memory
system.mem_ctrls.bytes_inst_read::cpu07.inst          256                       # Number of instructions bytes read from this memory
system.mem_ctrls.bytes_inst_read::cpu08.inst         1024                       # Number of instructions bytes read from this memory
system.mem_ctrls.bytes_inst_read::cpu09.inst          576                       # Number of instructions bytes read from this memory
system.mem_ctrls.bytes_inst_read::cpu10.inst          256                       # Number of instructions bytes read from this memory
system.mem_ctrls.bytes_inst_read::cpu11.inst         1600                       # Number of instructions bytes read from this memory
system.mem_ctrls.bytes_inst_read::cpu12.inst         2752                       # Number of instructions bytes read from this memory
system.mem_ctrls.bytes_inst_read::cpu13.inst          448                       # Number of instructions bytes read from this memory
system.mem_ctrls.bytes_inst_read::cpu14.inst         5696                       # Number of instructions bytes read from this memory
system.mem_ctrls.bytes_inst_read::cpu15.inst          768                       # Number of instructions bytes read from this memory
system.mem_ctrls.bytes_inst_read::total        148800                       # Number of instructions bytes read from this memory
system.mem_ctrls.num_reads::cpu00.inst           1863                       # Number of read requests responded to by this memory
system.mem_ctrls.num_reads::cpu00.data           5881                       # Number of read requests responded to by this memory
system.mem_ctrls.num_reads::cpu01.inst            171                       # Number of read requests responded to by this memory
system.mem_ctrls.num_reads::cpu01.data             77                       # Number of read requests responded to by this memory
system.mem_ctrls.num_reads::cpu02.inst             18                       # Number of read requests responded to by this memory
system.mem_ctrls.num_reads::cpu02.data             74                       # Number of read requests responded to by this memory
system.mem_ctrls.num_reads::cpu03.inst             19                       # Number of read requests responded to by this memory
system.mem_ctrls.num_reads::cpu03.data             71                       # Number of read requests responded to by this memory
system.mem_ctrls.num_reads::cpu04.inst             19                       # Number of read requests responded to by this memory
system.mem_ctrls.num_reads::cpu04.data             86                       # Number of read requests responded to by this memory
system.mem_ctrls.num_reads::cpu05.inst             20                       # Number of read requests responded to by this memory
system.mem_ctrls.num_reads::cpu05.data             87                       # Number of read requests responded to by this memory
system.mem_ctrls.num_reads::cpu06.inst              6                       # Number of read requests responded to by this memory
system.mem_ctrls.num_reads::cpu06.data             67                       # Number of read requests responded to by this memory
system.mem_ctrls.num_reads::cpu07.inst              4                       # Number of read requests responded to by this memory
system.mem_ctrls.num_reads::cpu07.data             84                       # Number of read requests responded to by this memory
system.mem_ctrls.num_reads::cpu08.inst             16                       # Number of read requests responded to by this memory
system.mem_ctrls.num_reads::cpu08.data             85                       # Number of read requests responded to by this memory
system.mem_ctrls.num_reads::cpu09.inst              9                       # Number of read requests responded to by this memory
system.mem_ctrls.num_reads::cpu09.data             76                       # Number of read requests responded to by this memory
system.mem_ctrls.num_reads::cpu10.inst              4                       # Number of read requests responded to by this memory
system.mem_ctrls.num_reads::cpu10.data             77                       # Number of read requests responded to by this memory
system.mem_ctrls.num_reads::cpu11.inst             25                       # Number of read requests responded to by this memory
system.mem_ctrls.num_reads::cpu11.data             84                       # Number of read requests responded to by this memory
system.mem_ctrls.num_reads::cpu12.inst             43                       # Number of read requests responded to by this memory
system.mem_ctrls.num_reads::cpu12.data             83                       # Number of read requests responded to by this memory
system.mem_ctrls.num_reads::cpu13.inst              7                       # Number of read requests responded to by this memory
system.mem_ctrls.num_reads::cpu13.data             70                       # Number of read requests responded to by this memory
system.mem_ctrls.num_reads::cpu14.inst             89                       # Number of read requests responded to by this memory
system.mem_ctrls.num_reads::cpu14.data             86                       # Number of read requests responded to by this memory
system.mem_ctrls.num_reads::cpu15.inst             12                       # Number of read requests responded to by this memory
system.mem_ctrls.num_reads::cpu15.data             86                       # Number of read requests responded to by this memory
system.mem_ctrls.num_reads::total                9399                       # Number of read requests responded to by this memory
system.mem_ctrls.bw_read::cpu00.inst         93006673                       # Total read bandwidth from this memory (bytes/s)
system.mem_ctrls.bw_read::cpu00.data        293597555                       # Total read bandwidth from this memory (bytes/s)
system.mem_ctrls.bw_read::cpu01.inst          8536844                       # Total read bandwidth from this memory (bytes/s)
system.mem_ctrls.bw_read::cpu01.data          3844076                       # Total read bandwidth from this memory (bytes/s)
system.mem_ctrls.bw_read::cpu02.inst           898615                       # Total read bandwidth from this memory (bytes/s)
system.mem_ctrls.bw_read::cpu02.data          3694307                       # Total read bandwidth from this memory (bytes/s)
system.mem_ctrls.bw_read::cpu03.inst           948538                       # Total read bandwidth from this memory (bytes/s)
system.mem_ctrls.bw_read::cpu03.data          3544538                       # Total read bandwidth from this memory (bytes/s)
system.mem_ctrls.bw_read::cpu04.inst           948538                       # Total read bandwidth from this memory (bytes/s)
system.mem_ctrls.bw_read::cpu04.data          4293384                       # Total read bandwidth from this memory (bytes/s)
system.mem_ctrls.bw_read::cpu05.inst           998461                       # Total read bandwidth from this memory (bytes/s)
system.mem_ctrls.bw_read::cpu05.data          4343307                       # Total read bandwidth from this memory (bytes/s)
system.mem_ctrls.bw_read::cpu06.inst           299538                       # Total read bandwidth from this memory (bytes/s)
system.mem_ctrls.bw_read::cpu06.data          3344845                       # Total read bandwidth from this memory (bytes/s)
system.mem_ctrls.bw_read::cpu07.inst           199692                       # Total read bandwidth from this memory (bytes/s)
system.mem_ctrls.bw_read::cpu07.data          4193538                       # Total read bandwidth from this memory (bytes/s)
system.mem_ctrls.bw_read::cpu08.inst           798769                       # Total read bandwidth from this memory (bytes/s)
system.mem_ctrls.bw_read::cpu08.data          4243461                       # Total read bandwidth from this memory (bytes/s)
system.mem_ctrls.bw_read::cpu09.inst           449308                       # Total read bandwidth from this memory (bytes/s)
system.mem_ctrls.bw_read::cpu09.data          3794153                       # Total read bandwidth from this memory (bytes/s)
system.mem_ctrls.bw_read::cpu10.inst           199692                       # Total read bandwidth from this memory (bytes/s)
system.mem_ctrls.bw_read::cpu10.data          3844076                       # Total read bandwidth from this memory (bytes/s)
system.mem_ctrls.bw_read::cpu11.inst          1248077                       # Total read bandwidth from this memory (bytes/s)
system.mem_ctrls.bw_read::cpu11.data          4193538                       # Total read bandwidth from this memory (bytes/s)
system.mem_ctrls.bw_read::cpu12.inst          2146692                       # Total read bandwidth from this memory (bytes/s)
system.mem_ctrls.bw_read::cpu12.data          4143615                       # Total read bandwidth from this memory (bytes/s)
system.mem_ctrls.bw_read::cpu13.inst           349461                       # Total read bandwidth from this memory (bytes/s)
system.mem_ctrls.bw_read::cpu13.data          3494615                       # Total read bandwidth from this memory (bytes/s)
system.mem_ctrls.bw_read::cpu14.inst          4443153                       # Total read bandwidth from this memory (bytes/s)
system.mem_ctrls.bw_read::cpu14.data          4293384                       # Total read bandwidth from this memory (bytes/s)
system.mem_ctrls.bw_read::cpu15.inst           599077                       # Total read bandwidth from this memory (bytes/s)
system.mem_ctrls.bw_read::cpu15.data          4293384                       # Total read bandwidth from this memory (bytes/s)
system.mem_ctrls.bw_read::total             469226904                       # Total read bandwidth from this memory (bytes/s)
system.mem_ctrls.bw_inst_read::cpu00.inst     93006673                       # Instruction read bandwidth from this memory (bytes/s)
system.mem_ctrls.bw_inst_read::cpu01.inst      8536844                       # Instruction read bandwidth from this memory (bytes/s)
system.mem_ctrls.bw_inst_read::cpu02.inst       898615                       # Instruction read bandwidth from this memory (bytes/s)
system.mem_ctrls.bw_inst_read::cpu03.inst       948538                       # Instruction read bandwidth from this memory (bytes/s)
system.mem_ctrls.bw_inst_read::cpu04.inst       948538                       # Instruction read bandwidth from this memory (bytes/s)
system.mem_ctrls.bw_inst_read::cpu05.inst       998461                       # Instruction read bandwidth from this memory (bytes/s)
system.mem_ctrls.bw_inst_read::cpu06.inst       299538                       # Instruction read bandwidth from this memory (bytes/s)
system.mem_ctrls.bw_inst_read::cpu07.inst       199692                       # Instruction read bandwidth from this memory (bytes/s)
system.mem_ctrls.bw_inst_read::cpu08.inst       798769                       # Instruction read bandwidth from this memory (bytes/s)
system.mem_ctrls.bw_inst_read::cpu09.inst       449308                       # Instruction read bandwidth from this memory (bytes/s)
system.mem_ctrls.bw_inst_read::cpu10.inst       199692                       # Instruction read bandwidth from this memory (bytes/s)
system.mem_ctrls.bw_inst_read::cpu11.inst      1248077                       # Instruction read bandwidth from this memory (bytes/s)
system.mem_ctrls.bw_inst_read::cpu12.inst      2146692                       # Instruction read bandwidth from this memory (bytes/s)
system.mem_ctrls.bw_inst_read::cpu13.inst       349461                       # Instruction read bandwidth from this memory (bytes/s)
system.mem_ctrls.bw_inst_read::cpu14.inst      4443153                       # Instruction read bandwidth from this memory (bytes/s)
system.mem_ctrls.bw_inst_read::cpu15.inst       599077                       # Instruction read bandwidth from this memory (bytes/s)
system.mem_ctrls.bw_inst_read::total        116071130                       # Instruction read bandwidth from this memory (bytes/s)
system.mem_ctrls.bw_total::cpu00.inst        93006673                       # Total bandwidth to/from this memory (bytes/s)
system.mem_ctrls.bw_total::cpu00.data       293597555                       # Total bandwidth to/from this memory (bytes/s)
system.mem_ctrls.bw_total::cpu01.inst         8536844                       # Total bandwidth to/from this memory (bytes/s)
system.mem_ctrls.bw_total::cpu01.data         3844076                       # Total bandwidth to/from this memory (bytes/s)
system.mem_ctrls.bw_total::cpu02.inst          898615                       # Total bandwidth to/from this memory (bytes/s)
system.mem_ctrls.bw_total::cpu02.data         3694307                       # Total bandwidth to/from this memory (bytes/s)
system.mem_ctrls.bw_total::cpu03.inst          948538                       # Total bandwidth to/from this memory (bytes/s)
system.mem_ctrls.bw_total::cpu03.data         3544538                       # Total bandwidth to/from this memory (bytes/s)
system.mem_ctrls.bw_total::cpu04.inst          948538                       # Total bandwidth to/from this memory (bytes/s)
system.mem_ctrls.bw_total::cpu04.data         4293384                       # Total bandwidth to/from this memory (bytes/s)
system.mem_ctrls.bw_total::cpu05.inst          998461                       # Total bandwidth to/from this memory (bytes/s)
system.mem_ctrls.bw_total::cpu05.data         4343307                       # Total bandwidth to/from this memory (bytes/s)
system.mem_ctrls.bw_total::cpu06.inst          299538                       # Total bandwidth to/from this memory (bytes/s)
system.mem_ctrls.bw_total::cpu06.data         3344845                       # Total bandwidth to/from this memory (bytes/s)
system.mem_ctrls.bw_total::cpu07.inst          199692                       # Total bandwidth to/from this memory (bytes/s)
system.mem_ctrls.bw_total::cpu07.data         4193538                       # Total bandwidth to/from this memory (bytes/s)
system.mem_ctrls.bw_total::cpu08.inst          798769                       # Total bandwidth to/from this memory (bytes/s)
system.mem_ctrls.bw_total::cpu08.data         4243461                       # Total bandwidth to/from this memory (bytes/s)
system.mem_ctrls.bw_total::cpu09.inst          449308                       # Total bandwidth to/from this memory (bytes/s)
system.mem_ctrls.bw_total::cpu09.data         3794153                       # Total bandwidth to/from this memory (bytes/s)
system.mem_ctrls.bw_total::cpu10.inst          199692                       # Total bandwidth to/from this memory (bytes/s)
system.mem_ctrls.bw_total::cpu10.data         3844076                       # Total bandwidth to/from this memory (bytes/s)
system.mem_ctrls.bw_total::cpu11.inst         1248077                       # Total bandwidth to/from this memory (bytes/s)
system.mem_ctrls.bw_total::cpu11.data         4193538                       # Total bandwidth to/from this memory (bytes/s)
system.mem_ctrls.bw_total::cpu12.inst         2146692                       # Total bandwidth to/from this memory (bytes/s)
system.mem_ctrls.bw_total::cpu12.data         4143615                       # Total bandwidth to/from this memory (bytes/s)
system.mem_ctrls.bw_total::cpu13.inst          349461                       # Total bandwidth to/from this memory (bytes/s)
system.mem_ctrls.bw_total::cpu13.data         3494615                       # Total bandwidth to/from this memory (bytes/s)
system.mem_ctrls.bw_total::cpu14.inst         4443153                       # Total bandwidth to/from this memory (bytes/s)
system.mem_ctrls.bw_total::cpu14.data         4293384                       # Total bandwidth to/from this memory (bytes/s)
system.mem_ctrls.bw_total::cpu15.inst          599077                       # Total bandwidth to/from this memory (bytes/s)
system.mem_ctrls.bw_total::cpu15.data         4293384                       # Total bandwidth to/from this memory (bytes/s)
system.mem_ctrls.bw_total::total            469226904                       # Total bandwidth to/from this memory (bytes/s)
system.cpu00.branchPred.lookups                132462                       # Number of BP lookups
system.cpu00.branchPred.condPredicted           73769                       # Number of conditional branches predicted
system.cpu00.branchPred.condIncorrect            5649                       # Number of conditional branches incorrect
system.cpu00.branchPred.BTBLookups              88890                       # Number of BTB lookups
system.cpu00.branchPred.BTBHits                 66337                       # Number of BTB hits
system.cpu00.branchPred.BTBCorrect                  0                       # Number of correct BTB predictions (this stat may not work properly.
system.cpu00.branchPred.BTBHitPct           74.628192                       # BTB Hit Percentage
system.cpu00.branchPred.usedRAS                 26432                       # Number of times the RAS was used to get a target.
system.cpu00.branchPred.RASInCorrect               79                       # Number of incorrect RAS predictions.
system.cpu00.branchPred.indirectLookups          3635                       # Number of indirect predictor lookups.
system.cpu00.branchPred.indirectHits             2886                       # Number of indirect target hits.
system.cpu00.branchPred.indirectMisses            749                       # Number of indirect misses.
system.cpu00.branchPredindirectMispredicted          253                       # Number of mispredicted indirect branches.
system.cpu_voltage_domain.voltage                   1                       # Voltage in Volts
system.cpu_clk_domain.clock                      1242                       # Clock period in ticks
system.cpu00.dtb.fetch_hits                         0                       # ITB hits
system.cpu00.dtb.fetch_misses                       0                       # ITB misses
system.cpu00.dtb.fetch_acv                          0                       # ITB acv
system.cpu00.dtb.fetch_accesses                     0                       # ITB accesses
system.cpu00.dtb.read_hits                     179612                       # DTB read hits
system.cpu00.dtb.read_misses                      606                       # DTB read misses
system.cpu00.dtb.read_acv                           0                       # DTB read access violations
system.cpu00.dtb.read_accesses                 180218                       # DTB read accesses
system.cpu00.dtb.write_hits                    127702                       # DTB write hits
system.cpu00.dtb.write_misses                    1045                       # DTB write misses
system.cpu00.dtb.write_acv                          0                       # DTB write access violations
system.cpu00.dtb.write_accesses                128747                       # DTB write accesses
system.cpu00.dtb.data_hits                     307314                       # DTB hits
system.cpu00.dtb.data_misses                     1651                       # DTB misses
system.cpu00.dtb.data_acv                           0                       # DTB access violations
system.cpu00.dtb.data_accesses                 308965                       # DTB accesses
system.cpu00.itb.fetch_hits                    149003                       # ITB hits
system.cpu00.itb.fetch_misses                     155                       # ITB misses
system.cpu00.itb.fetch_acv                          0                       # ITB acv
system.cpu00.itb.fetch_accesses                149158                       # ITB accesses
system.cpu00.itb.read_hits                          0                       # DTB read hits
system.cpu00.itb.read_misses                        0                       # DTB read misses
system.cpu00.itb.read_acv                           0                       # DTB read access violations
system.cpu00.itb.read_accesses                      0                       # DTB read accesses
system.cpu00.itb.write_hits                         0                       # DTB write hits
system.cpu00.itb.write_misses                       0                       # DTB write misses
system.cpu00.itb.write_acv                          0                       # DTB write access violations
system.cpu00.itb.write_accesses                     0                       # DTB write accesses
system.cpu00.itb.data_hits                          0                       # DTB hits
system.cpu00.itb.data_misses                        0                       # DTB misses
system.cpu00.itb.data_acv                           0                       # DTB access violations
system.cpu00.itb.data_accesses                      0                       # DTB accesses
system.cpu00.workload.num_syscalls               1817                       # Number of system calls
system.cpu00.numCycles                         963907                       # number of cpu cycles simulated
system.cpu00.numWorkItemsStarted                    0                       # number of work items this cpu started
system.cpu00.numWorkItemsCompleted                  0                       # number of work items this cpu completed
system.cpu00.fetch.icacheStallCycles            75249                       # Number of cycles fetch is stalled on an Icache miss
system.cpu00.fetch.Insts                      1188978                       # Number of instructions fetch has processed
system.cpu00.fetch.Branches                    132462                       # Number of branches that fetch encountered
system.cpu00.fetch.predictedBranches            95655                       # Number of branches that fetch has predicted taken
system.cpu00.fetch.Cycles                      692375                       # Number of cycles fetch has run and was not squashing or blocked
system.cpu00.fetch.SquashCycles                 12652                       # Number of cycles fetch has spent squashing
system.cpu00.fetch.MiscStallCycles                573                       # Number of cycles fetch has spent waiting on interrupts, or bad addresses, or out of MSHRs
system.cpu00.fetch.PendingTrapStallCycles         5917                       # Number of stall cycles due to pending traps
system.cpu00.fetch.IcacheWaitRetryStallCycles          592                       # Number of stall cycles due to full MSHR
system.cpu00.fetch.CacheLines                  149003                       # Number of cache lines fetched
system.cpu00.fetch.IcacheSquashes                2512                       # Number of outstanding Icache misses that were squashed
system.cpu00.fetch.rateDist::samples           781032                       # Number of instructions fetched each cycle (Total)
system.cpu00.fetch.rateDist::mean            1.522317                       # Number of instructions fetched each cycle (Total)
system.cpu00.fetch.rateDist::stdev           2.767098                       # Number of instructions fetched each cycle (Total)
system.cpu00.fetch.rateDist::underflows             0      0.00%      0.00% # Number of instructions fetched each cycle (Total)
system.cpu00.fetch.rateDist::0                 563617     72.16%     72.16% # Number of instructions fetched each cycle (Total)
system.cpu00.fetch.rateDist::1                  16365      2.10%     74.26% # Number of instructions fetched each cycle (Total)
system.cpu00.fetch.rateDist::2                  17315      2.22%     76.48% # Number of instructions fetched each cycle (Total)
system.cpu00.fetch.rateDist::3                  16857      2.16%     78.63% # Number of instructions fetched each cycle (Total)
system.cpu00.fetch.rateDist::4                  37941      4.86%     83.49% # Number of instructions fetched each cycle (Total)
system.cpu00.fetch.rateDist::5                  15681      2.01%     85.50% # Number of instructions fetched each cycle (Total)
system.cpu00.fetch.rateDist::6                  18748      2.40%     87.90% # Number of instructions fetched each cycle (Total)
system.cpu00.fetch.rateDist::7                  11309      1.45%     89.35% # Number of instructions fetched each cycle (Total)
system.cpu00.fetch.rateDist::8                  83199     10.65%    100.00% # Number of instructions fetched each cycle (Total)
system.cpu00.fetch.rateDist::overflows              0      0.00%    100.00% # Number of instructions fetched each cycle (Total)
system.cpu00.fetch.rateDist::min_value              0                       # Number of instructions fetched each cycle (Total)
system.cpu00.fetch.rateDist::max_value              8                       # Number of instructions fetched each cycle (Total)
system.cpu00.fetch.rateDist::total             781032                       # Number of instructions fetched each cycle (Total)
system.cpu00.fetch.branchRate                0.137422                       # Number of branch fetches per cycle
system.cpu00.fetch.rate                      1.233499                       # Number of inst fetches per cycle
system.cpu00.decode.IdleCycles                  84022                       # Number of cycles decode is idle
system.cpu00.decode.BlockedCycles              529495                       # Number of cycles decode is blocked
system.cpu00.decode.RunCycles                  130106                       # Number of cycles decode is running
system.cpu00.decode.UnblockCycles               32824                       # Number of cycles decode is unblocking
system.cpu00.decode.SquashCycles                 4585                       # Number of cycles decode is squashing
system.cpu00.decode.BranchResolved              26506                       # Number of times decode resolved a branch
system.cpu00.decode.BranchMispred                1797                       # Number of times decode detected a branch misprediction
system.cpu00.decode.DecodedInsts              1124882                       # Number of instructions handled by decode
system.cpu00.decode.SquashedInsts                7319                       # Number of squashed instructions handled by decode
system.cpu00.rename.SquashCycles                 4585                       # Number of cycles rename is squashing
system.cpu00.rename.IdleCycles                  99743                       # Number of cycles rename is idle
system.cpu00.rename.BlockCycles                 82698                       # Number of cycles rename is blocking
system.cpu00.rename.serializeStallCycles       211734                       # count of cycles rename stalled for serializing inst
system.cpu00.rename.RunCycles                  147342                       # Number of cycles rename is running
system.cpu00.rename.UnblockCycles              234930                       # Number of cycles rename is unblocking
system.cpu00.rename.RenamedInsts              1105387                       # Number of instructions processed by rename
system.cpu00.rename.ROBFullEvents                2677                       # Number of times rename has blocked due to ROB full
system.cpu00.rename.IQFullEvents                21937                       # Number of times rename has blocked due to IQ full
system.cpu00.rename.LQFullEvents                 1282                       # Number of times rename has blocked due to LQ full
system.cpu00.rename.SQFullEvents               201221                       # Number of times rename has blocked due to SQ full
system.cpu00.rename.RenamedOperands            757679                       # Number of destination operands rename has renamed
system.cpu00.rename.RenameLookups             1368853                       # Number of register rename lookups that rename has made
system.cpu00.rename.int_rename_lookups        1210830                       # Number of integer rename lookups
system.cpu00.rename.fp_rename_lookups          155736                       # Number of floating rename lookups
system.cpu00.rename.CommittedMaps              668960                       # Number of HB maps that are committed
system.cpu00.rename.UndoneMaps                  88719                       # Number of HB maps that are undone due to squashing
system.cpu00.rename.serializingInsts             4020                       # count of serializing insts renamed
system.cpu00.rename.tempSerializingInsts         1654                       # count of temporary serializing insts renamed
system.cpu00.rename.skidInsts                  146460                       # count of insts added to the skid buffer
system.cpu00.memDep0.insertedLoads             179266                       # Number of loads inserted to the mem dependence unit.
system.cpu00.memDep0.insertedStores            135290                       # Number of stores inserted to the mem dependence unit.
system.cpu00.memDep0.conflictingLoads           31940                       # Number of conflicting loads.
system.cpu00.memDep0.conflictingStores          11974                       # Number of conflicting stores.
system.cpu00.iq.iqInstsAdded                   968004                       # Number of instructions added to the IQ (excludes non-spec)
system.cpu00.iq.iqNonSpecInstsAdded              2753                       # Number of non-speculative instructions added to the IQ
system.cpu00.iq.iqInstsIssued                  950429                       # Number of instructions issued
system.cpu00.iq.iqSquashedInstsIssued            1687                       # Number of squashed instructions issued
system.cpu00.iq.iqSquashedInstsExamined        100693                       # Number of squashed instructions iterated over during squash; mainly for profiling
system.cpu00.iq.iqSquashedOperandsExamined        50627                       # Number of squashed operands that are examined and possibly removed from graph
system.cpu00.iq.iqSquashedNonSpecRemoved          377                       # Number of squashed non-spec instructions that were removed
system.cpu00.iq.issued_per_cycle::samples       781032                       # Number of insts issued each cycle
system.cpu00.iq.issued_per_cycle::mean       1.216889                       # Number of insts issued each cycle
system.cpu00.iq.issued_per_cycle::stdev      1.969012                       # Number of insts issued each cycle
system.cpu00.iq.issued_per_cycle::underflows            0      0.00%      0.00% # Number of insts issued each cycle
system.cpu00.iq.issued_per_cycle::0            485616     62.18%     62.18% # Number of insts issued each cycle
system.cpu00.iq.issued_per_cycle::1             72150      9.24%     71.41% # Number of insts issued each cycle
system.cpu00.iq.issued_per_cycle::2             60231      7.71%     79.13% # Number of insts issued each cycle
system.cpu00.iq.issued_per_cycle::3             44656      5.72%     84.84% # Number of insts issued each cycle
system.cpu00.iq.issued_per_cycle::4             42981      5.50%     90.35% # Number of insts issued each cycle
system.cpu00.iq.issued_per_cycle::5             28597      3.66%     94.01% # Number of insts issued each cycle
system.cpu00.iq.issued_per_cycle::6             26893      3.44%     97.45% # Number of insts issued each cycle
system.cpu00.iq.issued_per_cycle::7             11682      1.50%     98.95% # Number of insts issued each cycle
system.cpu00.iq.issued_per_cycle::8              8226      1.05%    100.00% # Number of insts issued each cycle
system.cpu00.iq.issued_per_cycle::overflows            0      0.00%    100.00% # Number of insts issued each cycle
system.cpu00.iq.issued_per_cycle::min_value            0                       # Number of insts issued each cycle
system.cpu00.iq.issued_per_cycle::max_value            8                       # Number of insts issued each cycle
system.cpu00.iq.issued_per_cycle::total        781032                       # Number of insts issued each cycle
system.cpu00.iq.fu_full::No_OpClass                 0      0.00%      0.00% # attempts to use FU when none available
system.cpu00.iq.fu_full::IntAlu                  4997     16.30%     16.30% # attempts to use FU when none available
system.cpu00.iq.fu_full::IntMult                 4097     13.36%     29.66% # attempts to use FU when none available
system.cpu00.iq.fu_full::IntDiv                     0      0.00%     29.66% # attempts to use FU when none available
system.cpu00.iq.fu_full::FloatAdd                  86      0.28%     29.94% # attempts to use FU when none available
system.cpu00.iq.fu_full::FloatCmp                   0      0.00%     29.94% # attempts to use FU when none available
system.cpu00.iq.fu_full::FloatCvt                   0      0.00%     29.94% # attempts to use FU when none available
system.cpu00.iq.fu_full::FloatMult               5898     19.24%     49.18% # attempts to use FU when none available
system.cpu00.iq.fu_full::FloatDiv                   0      0.00%     49.18% # attempts to use FU when none available
system.cpu00.iq.fu_full::FloatSqrt                  0      0.00%     49.18% # attempts to use FU when none available
system.cpu00.iq.fu_full::SimdAdd                    0      0.00%     49.18% # attempts to use FU when none available
system.cpu00.iq.fu_full::SimdAddAcc                 0      0.00%     49.18% # attempts to use FU when none available
system.cpu00.iq.fu_full::SimdAlu                    0      0.00%     49.18% # attempts to use FU when none available
system.cpu00.iq.fu_full::SimdCmp                    0      0.00%     49.18% # attempts to use FU when none available
system.cpu00.iq.fu_full::SimdCvt                    0      0.00%     49.18% # attempts to use FU when none available
system.cpu00.iq.fu_full::SimdMisc                   0      0.00%     49.18% # attempts to use FU when none available
system.cpu00.iq.fu_full::SimdMult                   0      0.00%     49.18% # attempts to use FU when none available
system.cpu00.iq.fu_full::SimdMultAcc                0      0.00%     49.18% # attempts to use FU when none available
system.cpu00.iq.fu_full::SimdShift                  0      0.00%     49.18% # attempts to use FU when none available
system.cpu00.iq.fu_full::SimdShiftAcc               0      0.00%     49.18% # attempts to use FU when none available
system.cpu00.iq.fu_full::SimdSqrt                   0      0.00%     49.18% # attempts to use FU when none available
system.cpu00.iq.fu_full::SimdFloatAdd               0      0.00%     49.18% # attempts to use FU when none available
system.cpu00.iq.fu_full::SimdFloatAlu               0      0.00%     49.18% # attempts to use FU when none available
system.cpu00.iq.fu_full::SimdFloatCmp               0      0.00%     49.18% # attempts to use FU when none available
system.cpu00.iq.fu_full::SimdFloatCvt               0      0.00%     49.18% # attempts to use FU when none available
system.cpu00.iq.fu_full::SimdFloatDiv               0      0.00%     49.18% # attempts to use FU when none available
system.cpu00.iq.fu_full::SimdFloatMisc              0      0.00%     49.18% # attempts to use FU when none available
system.cpu00.iq.fu_full::SimdFloatMult              0      0.00%     49.18% # attempts to use FU when none available
system.cpu00.iq.fu_full::SimdFloatMultAcc            0      0.00%     49.18% # attempts to use FU when none available
system.cpu00.iq.fu_full::SimdFloatSqrt              0      0.00%     49.18% # attempts to use FU when none available
system.cpu00.iq.fu_full::MemRead                 9529     31.08%     80.26% # attempts to use FU when none available
system.cpu00.iq.fu_full::MemWrite                6052     19.74%    100.00% # attempts to use FU when none available
system.cpu00.iq.fu_full::IprAccess                  0      0.00%    100.00% # attempts to use FU when none available
system.cpu00.iq.fu_full::InstPrefetch               0      0.00%    100.00% # attempts to use FU when none available
system.cpu00.iq.FU_type_0::No_OpClass               0      0.00%      0.00% # Type of FU issued
system.cpu00.iq.FU_type_0::IntAlu              551028     57.98%     57.98% # Type of FU issued
system.cpu00.iq.FU_type_0::IntMult              12787      1.35%     59.32% # Type of FU issued
system.cpu00.iq.FU_type_0::IntDiv                   0      0.00%     59.32% # Type of FU issued
system.cpu00.iq.FU_type_0::FloatAdd             35721      3.76%     63.08% # Type of FU issued
system.cpu00.iq.FU_type_0::FloatCmp                 8      0.00%     63.08% # Type of FU issued
system.cpu00.iq.FU_type_0::FloatCvt                 0      0.00%     63.08% # Type of FU issued
system.cpu00.iq.FU_type_0::FloatMult            37105      3.90%     66.99% # Type of FU issued
system.cpu00.iq.FU_type_0::FloatDiv                17      0.00%     66.99% # Type of FU issued
system.cpu00.iq.FU_type_0::FloatSqrt                0      0.00%     66.99% # Type of FU issued
system.cpu00.iq.FU_type_0::SimdAdd                  0      0.00%     66.99% # Type of FU issued
system.cpu00.iq.FU_type_0::SimdAddAcc               0      0.00%     66.99% # Type of FU issued
system.cpu00.iq.FU_type_0::SimdAlu                  0      0.00%     66.99% # Type of FU issued
system.cpu00.iq.FU_type_0::SimdCmp                  0      0.00%     66.99% # Type of FU issued
system.cpu00.iq.FU_type_0::SimdCvt                  0      0.00%     66.99% # Type of FU issued
system.cpu00.iq.FU_type_0::SimdMisc                 0      0.00%     66.99% # Type of FU issued
system.cpu00.iq.FU_type_0::SimdMult                 0      0.00%     66.99% # Type of FU issued
system.cpu00.iq.FU_type_0::SimdMultAcc              0      0.00%     66.99% # Type of FU issued
system.cpu00.iq.FU_type_0::SimdShift                0      0.00%     66.99% # Type of FU issued
system.cpu00.iq.FU_type_0::SimdShiftAcc             0      0.00%     66.99% # Type of FU issued
system.cpu00.iq.FU_type_0::SimdSqrt                 0      0.00%     66.99% # Type of FU issued
system.cpu00.iq.FU_type_0::SimdFloatAdd             0      0.00%     66.99% # Type of FU issued
system.cpu00.iq.FU_type_0::SimdFloatAlu             0      0.00%     66.99% # Type of FU issued
system.cpu00.iq.FU_type_0::SimdFloatCmp             0      0.00%     66.99% # Type of FU issued
system.cpu00.iq.FU_type_0::SimdFloatCvt             0      0.00%     66.99% # Type of FU issued
system.cpu00.iq.FU_type_0::SimdFloatDiv             0      0.00%     66.99% # Type of FU issued
system.cpu00.iq.FU_type_0::SimdFloatMisc            0      0.00%     66.99% # Type of FU issued
system.cpu00.iq.FU_type_0::SimdFloatMult            0      0.00%     66.99% # Type of FU issued
system.cpu00.iq.FU_type_0::SimdFloatMultAcc            0      0.00%     66.99% # Type of FU issued
system.cpu00.iq.FU_type_0::SimdFloatSqrt            0      0.00%     66.99% # Type of FU issued
system.cpu00.iq.FU_type_0::MemRead             183400     19.30%     86.28% # Type of FU issued
system.cpu00.iq.FU_type_0::MemWrite            130363     13.72%    100.00% # Type of FU issued
system.cpu00.iq.FU_type_0::IprAccess                0      0.00%    100.00% # Type of FU issued
system.cpu00.iq.FU_type_0::InstPrefetch             0      0.00%    100.00% # Type of FU issued
system.cpu00.iq.FU_type_0::total               950429                       # Type of FU issued
system.cpu00.iq.rate                         0.986017                       # Inst issue rate
system.cpu00.iq.fu_busy_cnt                     30659                       # FU busy when requested
system.cpu00.iq.fu_busy_rate                 0.032258                       # FU busy rate (busy events/executed inst)
system.cpu00.iq.int_inst_queue_reads          2471091                       # Number of integer instruction queue reads
system.cpu00.iq.int_inst_queue_writes          948605                       # Number of integer instruction queue writes
system.cpu00.iq.int_inst_queue_wakeup_accesses       813511                       # Number of integer instruction queue wakeup accesses
system.cpu00.iq.fp_inst_queue_reads            243145                       # Number of floating instruction queue reads
system.cpu00.iq.fp_inst_queue_writes           123258                       # Number of floating instruction queue writes
system.cpu00.iq.fp_inst_queue_wakeup_accesses       116961                       # Number of floating instruction queue wakeup accesses
system.cpu00.iq.int_alu_accesses               856184                       # Number of integer alu accesses
system.cpu00.iq.fp_alu_accesses                124904                       # Number of floating point alu accesses
system.cpu00.iew.lsq.thread0.forwLoads          21055                       # Number of loads that had data forwarded from stores
system.cpu00.iew.lsq.thread0.invAddrLoads            0                       # Number of loads ignored due to an invalid address
system.cpu00.iew.lsq.thread0.squashedLoads        18260                       # Number of loads squashed
system.cpu00.iew.lsq.thread0.ignoredResponses           52                       # Number of memory responses ignored because the instruction is squashed
system.cpu00.iew.lsq.thread0.memOrderViolation          420                       # Number of memory ordering violations
system.cpu00.iew.lsq.thread0.squashedStores        15763                       # Number of stores squashed
system.cpu00.iew.lsq.thread0.invAddrSwpfs            0                       # Number of software prefetches ignored due to an invalid address
system.cpu00.iew.lsq.thread0.blockedLoads            0                       # Number of blocked loads due to partial load-store forwarding
system.cpu00.iew.lsq.thread0.rescheduledLoads          224                       # Number of loads that were rescheduled
system.cpu00.iew.lsq.thread0.cacheBlocked         8534                       # Number of times an access to memory failed due to the cache being blocked
system.cpu00.iew.iewIdleCycles                      0                       # Number of cycles IEW is idle
system.cpu00.iew.iewSquashCycles                 4585                       # Number of cycles IEW is squashing
system.cpu00.iew.iewBlockCycles                 21760                       # Number of cycles IEW is blocking
system.cpu00.iew.iewUnblockCycles               53901                       # Number of cycles IEW is unblocking
system.cpu00.iew.iewDispatchedInsts           1078229                       # Number of instructions dispatched to IQ
system.cpu00.iew.iewDispSquashedInsts            1527                       # Number of squashed instructions skipped by dispatch
system.cpu00.iew.iewDispLoadInsts              179266                       # Number of dispatched load instructions
system.cpu00.iew.iewDispStoreInsts             135290                       # Number of dispatched store instructions
system.cpu00.iew.iewDispNonSpecInsts             1574                       # Number of dispatched non-speculative instructions
system.cpu00.iew.iewIQFullEvents                  101                       # Number of times the IQ has become full, causing a stall
system.cpu00.iew.iewLSQFullEvents               53691                       # Number of times the LSQ has become full, causing a stall
system.cpu00.iew.memOrderViolationEvents          420                       # Number of memory order violations
system.cpu00.iew.predictedTakenIncorrect         1543                       # Number of branches that were predicted taken incorrectly
system.cpu00.iew.predictedNotTakenIncorrect         3127                       # Number of branches that were predicted not taken incorrectly
system.cpu00.iew.branchMispredicts               4670                       # Number of branch mispredicts detected at execute
system.cpu00.iew.iewExecutedInsts              942756                       # Number of executed instructions
system.cpu00.iew.iewExecLoadInsts              180236                       # Number of load instructions executed
system.cpu00.iew.iewExecSquashedInsts            7673                       # Number of squashed instructions skipped in execute
system.cpu00.iew.exec_swp                           0                       # number of swp insts executed
system.cpu00.iew.exec_nop                      107472                       # number of nop insts executed
system.cpu00.iew.exec_refs                     308991                       # number of memory reference insts executed
system.cpu00.iew.exec_branches                 110332                       # Number of branches executed
system.cpu00.iew.exec_stores                   128755                       # Number of stores executed
system.cpu00.iew.exec_rate                   0.978057                       # Inst execution rate
system.cpu00.iew.wb_sent                       934044                       # cumulative count of insts sent to commit
system.cpu00.iew.wb_count                      930472                       # cumulative count of insts written-back
system.cpu00.iew.wb_producers                  545755                       # num instructions producing a value
system.cpu00.iew.wb_consumers                  777691                       # num instructions consuming a value
system.cpu00.iew.wb_rate                     0.965313                       # insts written-back per cycle
system.cpu00.iew.wb_fanout                   0.701763                       # average fanout of values written-back
system.cpu00.commit.commitSquashedInsts        104515                       # The number of squashed insts skipped by commit
system.cpu00.commit.commitNonSpecStalls          2376                       # The number of times commit has been forced to stall to communicate backwards
system.cpu00.commit.branchMispredicts            3908                       # The number of times a branch was mispredicted
system.cpu00.commit.committed_per_cycle::samples       764705                       # Number of insts commited each cycle
system.cpu00.commit.committed_per_cycle::mean     1.266794                       # Number of insts commited each cycle
system.cpu00.commit.committed_per_cycle::stdev     2.345445                       # Number of insts commited each cycle
system.cpu00.commit.committed_per_cycle::underflows            0      0.00%      0.00% # Number of insts commited each cycle
system.cpu00.commit.committed_per_cycle::0       516631     67.56%     67.56% # Number of insts commited each cycle
system.cpu00.commit.committed_per_cycle::1        51280      6.71%     74.27% # Number of insts commited each cycle
system.cpu00.commit.committed_per_cycle::2        51196      6.69%     80.96% # Number of insts commited each cycle
system.cpu00.commit.committed_per_cycle::3        30015      3.93%     84.89% # Number of insts commited each cycle
system.cpu00.commit.committed_per_cycle::4        35492      4.64%     89.53% # Number of insts commited each cycle
system.cpu00.commit.committed_per_cycle::5         8911      1.17%     90.69% # Number of insts commited each cycle
system.cpu00.commit.committed_per_cycle::6        12936      1.69%     92.38% # Number of insts commited each cycle
system.cpu00.commit.committed_per_cycle::7         5084      0.66%     93.05% # Number of insts commited each cycle
system.cpu00.commit.committed_per_cycle::8        53160      6.95%    100.00% # Number of insts commited each cycle
system.cpu00.commit.committed_per_cycle::overflows            0      0.00%    100.00% # Number of insts commited each cycle
system.cpu00.commit.committed_per_cycle::min_value            0                       # Number of insts commited each cycle
system.cpu00.commit.committed_per_cycle::max_value            8                       # Number of insts commited each cycle
system.cpu00.commit.committed_per_cycle::total       764705                       # Number of insts commited each cycle
system.cpu00.commit.committedInsts             968724                       # Number of instructions committed
system.cpu00.commit.committedOps               968724                       # Number of ops (including micro ops) committed
system.cpu00.commit.swp_count                       0                       # Number of s/w prefetches committed
system.cpu00.commit.refs                       280533                       # Number of memory references committed
system.cpu00.commit.loads                      161006                       # Number of loads committed
system.cpu00.commit.membars                      1038                       # Number of memory barriers committed
system.cpu00.commit.branches                   100158                       # Number of branches committed
system.cpu00.commit.fp_insts                   116058                       # Number of committed floating point instructions.
system.cpu00.commit.int_insts                  792191                       # Number of committed integer instructions.
system.cpu00.commit.function_calls              22221                       # Number of function calls committed.
system.cpu00.commit.op_class_0::No_OpClass        98661     10.18%     10.18% # Class of committed instruction
system.cpu00.commit.op_class_0::IntAlu         503365     51.96%     62.15% # Class of committed instruction
system.cpu00.commit.op_class_0::IntMult         12689      1.31%     63.46% # Class of committed instruction
system.cpu00.commit.op_class_0::IntDiv              0      0.00%     63.46% # Class of committed instruction
system.cpu00.commit.op_class_0::FloatAdd        35480      3.66%     67.12% # Class of committed instruction
system.cpu00.commit.op_class_0::FloatCmp            8      0.00%     67.12% # Class of committed instruction
system.cpu00.commit.op_class_0::FloatCvt            0      0.00%     67.12% # Class of committed instruction
system.cpu00.commit.op_class_0::FloatMult        36935      3.81%     70.93% # Class of committed instruction
system.cpu00.commit.op_class_0::FloatDiv           14      0.00%     70.93% # Class of committed instruction
system.cpu00.commit.op_class_0::FloatSqrt            0      0.00%     70.93% # Class of committed instruction
system.cpu00.commit.op_class_0::SimdAdd             0      0.00%     70.93% # Class of committed instruction
system.cpu00.commit.op_class_0::SimdAddAcc            0      0.00%     70.93% # Class of committed instruction
system.cpu00.commit.op_class_0::SimdAlu             0      0.00%     70.93% # Class of committed instruction
system.cpu00.commit.op_class_0::SimdCmp             0      0.00%     70.93% # Class of committed instruction
system.cpu00.commit.op_class_0::SimdCvt             0      0.00%     70.93% # Class of committed instruction
system.cpu00.commit.op_class_0::SimdMisc            0      0.00%     70.93% # Class of committed instruction
system.cpu00.commit.op_class_0::SimdMult            0      0.00%     70.93% # Class of committed instruction
system.cpu00.commit.op_class_0::SimdMultAcc            0      0.00%     70.93% # Class of committed instruction
system.cpu00.commit.op_class_0::SimdShift            0      0.00%     70.93% # Class of committed instruction
system.cpu00.commit.op_class_0::SimdShiftAcc            0      0.00%     70.93% # Class of committed instruction
system.cpu00.commit.op_class_0::SimdSqrt            0      0.00%     70.93% # Class of committed instruction
system.cpu00.commit.op_class_0::SimdFloatAdd            0      0.00%     70.93% # Class of committed instruction
system.cpu00.commit.op_class_0::SimdFloatAlu            0      0.00%     70.93% # Class of committed instruction
system.cpu00.commit.op_class_0::SimdFloatCmp            0      0.00%     70.93% # Class of committed instruction
system.cpu00.commit.op_class_0::SimdFloatCvt            0      0.00%     70.93% # Class of committed instruction
system.cpu00.commit.op_class_0::SimdFloatDiv            0      0.00%     70.93% # Class of committed instruction
system.cpu00.commit.op_class_0::SimdFloatMisc            0      0.00%     70.93% # Class of committed instruction
system.cpu00.commit.op_class_0::SimdFloatMult            0      0.00%     70.93% # Class of committed instruction
system.cpu00.commit.op_class_0::SimdFloatMultAcc            0      0.00%     70.93% # Class of committed instruction
system.cpu00.commit.op_class_0::SimdFloatSqrt            0      0.00%     70.93% # Class of committed instruction
system.cpu00.commit.op_class_0::MemRead        162044     16.73%     87.66% # Class of committed instruction
system.cpu00.commit.op_class_0::MemWrite       119528     12.34%    100.00% # Class of committed instruction
system.cpu00.commit.op_class_0::IprAccess            0      0.00%    100.00% # Class of committed instruction
system.cpu00.commit.op_class_0::InstPrefetch            0      0.00%    100.00% # Class of committed instruction
system.cpu00.commit.op_class_0::total          968724                       # Class of committed instruction
system.cpu00.commit.bw_lim_events               53160                       # number cycles where commit BW limit reached
system.cpu00.rob.rob_reads                    1780793                       # The number of ROB reads
system.cpu00.rob.rob_writes                   2162933                       # The number of ROB writes
system.cpu00.timesIdled                          1389                       # Number of times that the entire CPU went into an idle state and unscheduled itself
system.cpu00.idleCycles                        182875                       # Total number of cycles that the CPU has spent unscheduled due to idling
system.cpu00.quiesceCycles                      68278                       # Total number of cycles that CPU has spent quiesced or waiting for an interrupt
system.cpu00.committedInsts                    870063                       # Number of Instructions Simulated
system.cpu00.committedOps                      870063                       # Number of Ops (including micro ops) Simulated
system.cpu00.cpi                             1.107859                       # CPI: Cycles Per Instruction
system.cpu00.cpi_total                       1.107859                       # CPI: Total CPI of All Threads
system.cpu00.ipc                             0.902642                       # IPC: Instructions Per Cycle
system.cpu00.ipc_total                       0.902642                       # IPC: Total IPC of All Threads
system.cpu00.int_regfile_reads                1138905                       # number of integer regfile reads
system.cpu00.int_regfile_writes                612662                       # number of integer regfile writes
system.cpu00.fp_regfile_reads                  151793                       # number of floating regfile reads
system.cpu00.fp_regfile_writes                 102906                       # number of floating regfile writes
system.cpu00.misc_regfile_reads                  5090                       # number of misc regfile reads
system.cpu00.misc_regfile_writes                 2255                       # number of misc regfile writes
system.cpu00.dcache.tags.replacements           11270                       # number of replacements
system.cpu00.dcache.tags.tagsinuse         124.748832                       # Cycle average of tags in use
system.cpu00.dcache.tags.total_refs            229952                       # Total number of references to valid blocks.
system.cpu00.dcache.tags.sampled_refs           11398                       # Sample count of references to valid blocks.
system.cpu00.dcache.tags.avg_refs           20.174768                       # Average number of references to valid blocks.
system.cpu00.dcache.tags.warmup_cycle        85412340                       # Cycle when the warmup percentage was hit.
system.cpu00.dcache.tags.occ_blocks::cpu00.data   124.748832                       # Average occupied blocks per requestor
system.cpu00.dcache.tags.occ_percent::cpu00.data     0.974600                       # Average percentage of cache occupancy
system.cpu00.dcache.tags.occ_percent::total     0.974600                       # Average percentage of cache occupancy
system.cpu00.dcache.tags.occ_task_id_blocks::1024          128                       # Occupied blocks per task id
system.cpu00.dcache.tags.age_task_id_blocks_1024::0           58                       # Occupied blocks per task id
system.cpu00.dcache.tags.age_task_id_blocks_1024::1           61                       # Occupied blocks per task id
system.cpu00.dcache.tags.age_task_id_blocks_1024::2            9                       # Occupied blocks per task id
system.cpu00.dcache.tags.occ_task_id_percent::1024            1                       # Percentage of cache occupancy per task id
system.cpu00.dcache.tags.tag_accesses         1096679                       # Number of tag accesses
system.cpu00.dcache.tags.data_accesses        1096679                       # Number of data accesses
system.cpu00.dcache.ReadReq_hits::cpu00.data       142362                       # number of ReadReq hits
system.cpu00.dcache.ReadReq_hits::total        142362                       # number of ReadReq hits
system.cpu00.dcache.WriteReq_hits::cpu00.data        85386                       # number of WriteReq hits
system.cpu00.dcache.WriteReq_hits::total        85386                       # number of WriteReq hits
system.cpu00.dcache.LoadLockedReq_hits::cpu00.data          952                       # number of LoadLockedReq hits
system.cpu00.dcache.LoadLockedReq_hits::total          952                       # number of LoadLockedReq hits
system.cpu00.dcache.StoreCondReq_hits::cpu00.data         1101                       # number of StoreCondReq hits
system.cpu00.dcache.StoreCondReq_hits::total         1101                       # number of StoreCondReq hits
system.cpu00.dcache.demand_hits::cpu00.data       227748                       # number of demand (read+write) hits
system.cpu00.dcache.demand_hits::total         227748                       # number of demand (read+write) hits
system.cpu00.dcache.overall_hits::cpu00.data       227748                       # number of overall hits
system.cpu00.dcache.overall_hits::total        227748                       # number of overall hits
system.cpu00.dcache.ReadReq_misses::cpu00.data         8157                       # number of ReadReq misses
system.cpu00.dcache.ReadReq_misses::total         8157                       # number of ReadReq misses
system.cpu00.dcache.WriteReq_misses::cpu00.data        33017                       # number of WriteReq misses
system.cpu00.dcache.WriteReq_misses::total        33017                       # number of WriteReq misses
system.cpu00.dcache.LoadLockedReq_misses::cpu00.data          251                       # number of LoadLockedReq misses
system.cpu00.dcache.LoadLockedReq_misses::total          251                       # number of LoadLockedReq misses
system.cpu00.dcache.StoreCondReq_misses::cpu00.data           22                       # number of StoreCondReq misses
system.cpu00.dcache.StoreCondReq_misses::total           22                       # number of StoreCondReq misses
system.cpu00.dcache.demand_misses::cpu00.data        41174                       # number of demand (read+write) misses
system.cpu00.dcache.demand_misses::total        41174                       # number of demand (read+write) misses
system.cpu00.dcache.overall_misses::cpu00.data        41174                       # number of overall misses
system.cpu00.dcache.overall_misses::total        41174                       # number of overall misses
system.cpu00.dcache.ReadReq_miss_latency::cpu00.data    399278160                       # number of ReadReq miss cycles
system.cpu00.dcache.ReadReq_miss_latency::total    399278160                       # number of ReadReq miss cycles
system.cpu00.dcache.WriteReq_miss_latency::cpu00.data   5362871161                       # number of WriteReq miss cycles
system.cpu00.dcache.WriteReq_miss_latency::total   5362871161                       # number of WriteReq miss cycles
system.cpu00.dcache.LoadLockedReq_miss_latency::cpu00.data      2259198                       # number of LoadLockedReq miss cycles
system.cpu00.dcache.LoadLockedReq_miss_latency::total      2259198                       # number of LoadLockedReq miss cycles
system.cpu00.dcache.StoreCondReq_miss_latency::cpu00.data       573804                       # number of StoreCondReq miss cycles
system.cpu00.dcache.StoreCondReq_miss_latency::total       573804                       # number of StoreCondReq miss cycles
system.cpu00.dcache.demand_miss_latency::cpu00.data   5762149321                       # number of demand (read+write) miss cycles
system.cpu00.dcache.demand_miss_latency::total   5762149321                       # number of demand (read+write) miss cycles
system.cpu00.dcache.overall_miss_latency::cpu00.data   5762149321                       # number of overall miss cycles
system.cpu00.dcache.overall_miss_latency::total   5762149321                       # number of overall miss cycles
system.cpu00.dcache.ReadReq_accesses::cpu00.data       150519                       # number of ReadReq accesses(hits+misses)
system.cpu00.dcache.ReadReq_accesses::total       150519                       # number of ReadReq accesses(hits+misses)
system.cpu00.dcache.WriteReq_accesses::cpu00.data       118403                       # number of WriteReq accesses(hits+misses)
system.cpu00.dcache.WriteReq_accesses::total       118403                       # number of WriteReq accesses(hits+misses)
system.cpu00.dcache.LoadLockedReq_accesses::cpu00.data         1203                       # number of LoadLockedReq accesses(hits+misses)
system.cpu00.dcache.LoadLockedReq_accesses::total         1203                       # number of LoadLockedReq accesses(hits+misses)
system.cpu00.dcache.StoreCondReq_accesses::cpu00.data         1123                       # number of StoreCondReq accesses(hits+misses)
system.cpu00.dcache.StoreCondReq_accesses::total         1123                       # number of StoreCondReq accesses(hits+misses)
system.cpu00.dcache.demand_accesses::cpu00.data       268922                       # number of demand (read+write) accesses
system.cpu00.dcache.demand_accesses::total       268922                       # number of demand (read+write) accesses
system.cpu00.dcache.overall_accesses::cpu00.data       268922                       # number of overall (read+write) accesses
system.cpu00.dcache.overall_accesses::total       268922                       # number of overall (read+write) accesses
system.cpu00.dcache.ReadReq_miss_rate::cpu00.data     0.054192                       # miss rate for ReadReq accesses
system.cpu00.dcache.ReadReq_miss_rate::total     0.054192                       # miss rate for ReadReq accesses
system.cpu00.dcache.WriteReq_miss_rate::cpu00.data     0.278853                       # miss rate for WriteReq accesses
system.cpu00.dcache.WriteReq_miss_rate::total     0.278853                       # miss rate for WriteReq accesses
system.cpu00.dcache.LoadLockedReq_miss_rate::cpu00.data     0.208645                       # miss rate for LoadLockedReq accesses
system.cpu00.dcache.LoadLockedReq_miss_rate::total     0.208645                       # miss rate for LoadLockedReq accesses
system.cpu00.dcache.StoreCondReq_miss_rate::cpu00.data     0.019590                       # miss rate for StoreCondReq accesses
system.cpu00.dcache.StoreCondReq_miss_rate::total     0.019590                       # miss rate for StoreCondReq accesses
system.cpu00.dcache.demand_miss_rate::cpu00.data     0.153108                       # miss rate for demand accesses
system.cpu00.dcache.demand_miss_rate::total     0.153108                       # miss rate for demand accesses
system.cpu00.dcache.overall_miss_rate::cpu00.data     0.153108                       # miss rate for overall accesses
system.cpu00.dcache.overall_miss_rate::total     0.153108                       # miss rate for overall accesses
system.cpu00.dcache.ReadReq_avg_miss_latency::cpu00.data 48949.143067                       # average ReadReq miss latency
system.cpu00.dcache.ReadReq_avg_miss_latency::total 48949.143067                       # average ReadReq miss latency
system.cpu00.dcache.WriteReq_avg_miss_latency::cpu00.data 162427.572493                       # average WriteReq miss latency
system.cpu00.dcache.WriteReq_avg_miss_latency::total 162427.572493                       # average WriteReq miss latency
system.cpu00.dcache.LoadLockedReq_avg_miss_latency::cpu00.data  9000.788845                       # average LoadLockedReq miss latency
system.cpu00.dcache.LoadLockedReq_avg_miss_latency::total  9000.788845                       # average LoadLockedReq miss latency
system.cpu00.dcache.StoreCondReq_avg_miss_latency::cpu00.data        26082                       # average StoreCondReq miss latency
system.cpu00.dcache.StoreCondReq_avg_miss_latency::total        26082                       # average StoreCondReq miss latency
system.cpu00.dcache.demand_avg_miss_latency::cpu00.data 139946.308860                       # average overall miss latency
system.cpu00.dcache.demand_avg_miss_latency::total 139946.308860                       # average overall miss latency
system.cpu00.dcache.overall_avg_miss_latency::cpu00.data 139946.308860                       # average overall miss latency
system.cpu00.dcache.overall_avg_miss_latency::total 139946.308860                       # average overall miss latency
system.cpu00.dcache.blocked_cycles::no_mshrs       146049                       # number of cycles access was blocked
system.cpu00.dcache.blocked_cycles::no_targets            0                       # number of cycles access was blocked
system.cpu00.dcache.blocked::no_mshrs            2615                       # number of cycles access was blocked
system.cpu00.dcache.blocked::no_targets             0                       # number of cycles access was blocked
system.cpu00.dcache.avg_blocked_cycles::no_mshrs    55.850478                       # average number of cycles each access was blocked
system.cpu00.dcache.avg_blocked_cycles::no_targets          nan                       # average number of cycles each access was blocked
system.cpu00.dcache.fast_writes                     0                       # number of fast writes performed
system.cpu00.dcache.cache_copies                    0                       # number of cache copies performed
system.cpu00.dcache.writebacks::writebacks         8415                       # number of writebacks
system.cpu00.dcache.writebacks::total            8415                       # number of writebacks
system.cpu00.dcache.ReadReq_mshr_hits::cpu00.data         2772                       # number of ReadReq MSHR hits
system.cpu00.dcache.ReadReq_mshr_hits::total         2772                       # number of ReadReq MSHR hits
system.cpu00.dcache.WriteReq_mshr_hits::cpu00.data        26731                       # number of WriteReq MSHR hits
system.cpu00.dcache.WriteReq_mshr_hits::total        26731                       # number of WriteReq MSHR hits
system.cpu00.dcache.LoadLockedReq_mshr_hits::cpu00.data          144                       # number of LoadLockedReq MSHR hits
system.cpu00.dcache.LoadLockedReq_mshr_hits::total          144                       # number of LoadLockedReq MSHR hits
system.cpu00.dcache.demand_mshr_hits::cpu00.data        29503                       # number of demand (read+write) MSHR hits
system.cpu00.dcache.demand_mshr_hits::total        29503                       # number of demand (read+write) MSHR hits
system.cpu00.dcache.overall_mshr_hits::cpu00.data        29503                       # number of overall MSHR hits
system.cpu00.dcache.overall_mshr_hits::total        29503                       # number of overall MSHR hits
system.cpu00.dcache.ReadReq_mshr_misses::cpu00.data         5385                       # number of ReadReq MSHR misses
system.cpu00.dcache.ReadReq_mshr_misses::total         5385                       # number of ReadReq MSHR misses
system.cpu00.dcache.WriteReq_mshr_misses::cpu00.data         6286                       # number of WriteReq MSHR misses
system.cpu00.dcache.WriteReq_mshr_misses::total         6286                       # number of WriteReq MSHR misses
system.cpu00.dcache.LoadLockedReq_mshr_misses::cpu00.data          107                       # number of LoadLockedReq MSHR misses
system.cpu00.dcache.LoadLockedReq_mshr_misses::total          107                       # number of LoadLockedReq MSHR misses
system.cpu00.dcache.StoreCondReq_mshr_misses::cpu00.data           22                       # number of StoreCondReq MSHR misses
system.cpu00.dcache.StoreCondReq_mshr_misses::total           22                       # number of StoreCondReq MSHR misses
system.cpu00.dcache.demand_mshr_misses::cpu00.data        11671                       # number of demand (read+write) MSHR misses
system.cpu00.dcache.demand_mshr_misses::total        11671                       # number of demand (read+write) MSHR misses
system.cpu00.dcache.overall_mshr_misses::cpu00.data        11671                       # number of overall MSHR misses
system.cpu00.dcache.overall_mshr_misses::total        11671                       # number of overall MSHR misses
system.cpu00.dcache.ReadReq_mshr_miss_latency::cpu00.data    226104858                       # number of ReadReq MSHR miss cycles
system.cpu00.dcache.ReadReq_mshr_miss_latency::total    226104858                       # number of ReadReq MSHR miss cycles
system.cpu00.dcache.WriteReq_mshr_miss_latency::cpu00.data   1133579486                       # number of WriteReq MSHR miss cycles
system.cpu00.dcache.WriteReq_mshr_miss_latency::total   1133579486                       # number of WriteReq MSHR miss cycles
system.cpu00.dcache.LoadLockedReq_mshr_miss_latency::cpu00.data       714150                       # number of LoadLockedReq MSHR miss cycles
system.cpu00.dcache.LoadLockedReq_mshr_miss_latency::total       714150                       # number of LoadLockedReq MSHR miss cycles
system.cpu00.dcache.StoreCondReq_mshr_miss_latency::cpu00.data       546480                       # number of StoreCondReq MSHR miss cycles
system.cpu00.dcache.StoreCondReq_mshr_miss_latency::total       546480                       # number of StoreCondReq MSHR miss cycles
system.cpu00.dcache.demand_mshr_miss_latency::cpu00.data   1359684344                       # number of demand (read+write) MSHR miss cycles
system.cpu00.dcache.demand_mshr_miss_latency::total   1359684344                       # number of demand (read+write) MSHR miss cycles
system.cpu00.dcache.overall_mshr_miss_latency::cpu00.data   1359684344                       # number of overall MSHR miss cycles
system.cpu00.dcache.overall_mshr_miss_latency::total   1359684344                       # number of overall MSHR miss cycles
system.cpu00.dcache.ReadReq_mshr_miss_rate::cpu00.data     0.035776                       # mshr miss rate for ReadReq accesses
system.cpu00.dcache.ReadReq_mshr_miss_rate::total     0.035776                       # mshr miss rate for ReadReq accesses
system.cpu00.dcache.WriteReq_mshr_miss_rate::cpu00.data     0.053090                       # mshr miss rate for WriteReq accesses
system.cpu00.dcache.WriteReq_mshr_miss_rate::total     0.053090                       # mshr miss rate for WriteReq accesses
system.cpu00.dcache.LoadLockedReq_mshr_miss_rate::cpu00.data     0.088944                       # mshr miss rate for LoadLockedReq accesses
system.cpu00.dcache.LoadLockedReq_mshr_miss_rate::total     0.088944                       # mshr miss rate for LoadLockedReq accesses
system.cpu00.dcache.StoreCondReq_mshr_miss_rate::cpu00.data     0.019590                       # mshr miss rate for StoreCondReq accesses
system.cpu00.dcache.StoreCondReq_mshr_miss_rate::total     0.019590                       # mshr miss rate for StoreCondReq accesses
system.cpu00.dcache.demand_mshr_miss_rate::cpu00.data     0.043399                       # mshr miss rate for demand accesses
system.cpu00.dcache.demand_mshr_miss_rate::total     0.043399                       # mshr miss rate for demand accesses
system.cpu00.dcache.overall_mshr_miss_rate::cpu00.data     0.043399                       # mshr miss rate for overall accesses
system.cpu00.dcache.overall_mshr_miss_rate::total     0.043399                       # mshr miss rate for overall accesses
system.cpu00.dcache.ReadReq_avg_mshr_miss_latency::cpu00.data 41987.903064                       # average ReadReq mshr miss latency
system.cpu00.dcache.ReadReq_avg_mshr_miss_latency::total 41987.903064                       # average ReadReq mshr miss latency
system.cpu00.dcache.WriteReq_avg_mshr_miss_latency::cpu00.data 180333.993955                       # average WriteReq mshr miss latency
system.cpu00.dcache.WriteReq_avg_mshr_miss_latency::total 180333.993955                       # average WriteReq mshr miss latency
system.cpu00.dcache.LoadLockedReq_avg_mshr_miss_latency::cpu00.data  6674.299065                       # average LoadLockedReq mshr miss latency
system.cpu00.dcache.LoadLockedReq_avg_mshr_miss_latency::total  6674.299065                       # average LoadLockedReq mshr miss latency
system.cpu00.dcache.StoreCondReq_avg_mshr_miss_latency::cpu00.data        24840                       # average StoreCondReq mshr miss latency
system.cpu00.dcache.StoreCondReq_avg_mshr_miss_latency::total        24840                       # average StoreCondReq mshr miss latency
system.cpu00.dcache.demand_avg_mshr_miss_latency::cpu00.data 116501.100506                       # average overall mshr miss latency
system.cpu00.dcache.demand_avg_mshr_miss_latency::total 116501.100506                       # average overall mshr miss latency
[...]
system.tol2bus.pkt_count_system.cpu06.dcache.mem_side::system.l2.cpu_side         1083                       # Packet count per connected master and slave (bytes)
system.tol2bus.pkt_count_system.cpu07.icache.mem_side::system.l2.cpu_side         3070                       # Packet count per connected master and slave (bytes)
system.tol2bus.pkt_count_system.cpu07.dcache.mem_side::system.l2.cpu_side         2764                       # Packet count per connected master and slave (bytes)
system.tol2bus.pkt_count_system.cpu08.icache.mem_side::system.l2.cpu_side         2664                       # Packet count per connected master and slave (bytes)
system.tol2bus.pkt_count_system.cpu08.dcache.mem_side::system.l2.cpu_side         2180                       # Packet count per connected master and slave (bytes)
system.tol2bus.pkt_count_system.cpu09.icache.mem_side::system.l2.cpu_side         1032                       # Packet count per connected master and slave (bytes)
system.tol2bus.pkt_count_system.cpu09.dcache.mem_side::system.l2.cpu_side         1119                       # Packet count per connected master and slave (bytes)
system.tol2bus.pkt_count_system.cpu10.icache.mem_side::system.l2.cpu_side         1106                       # Packet count per connected master and slave (bytes)
system.tol2bus.pkt_count_system.cpu10.dcache.mem_side::system.l2.cpu_side         1159                       # Packet count per connected master and slave (bytes)
system.tol2bus.pkt_count_system.cpu11.icache.mem_side::system.l2.cpu_side         3022                       # Packet count per connected master and slave (bytes)
system.tol2bus.pkt_count_system.cpu11.dcache.mem_side::system.l2.cpu_side         2963                       # Packet count per connected master and slave (bytes)
system.tol2bus.pkt_count_system.cpu12.icache.mem_side::system.l2.cpu_side         1645                       # Packet count per connected master and slave (bytes)
system.tol2bus.pkt_count_system.cpu12.dcache.mem_side::system.l2.cpu_side         1728                       # Packet count per connected master and slave (bytes)
system.tol2bus.pkt_count_system.cpu13.icache.mem_side::system.l2.cpu_side         1234                       # Packet count per connected master and slave (bytes)
system.tol2bus.pkt_count_system.cpu13.dcache.mem_side::system.l2.cpu_side         1084                       # Packet count per connected master and slave (bytes)
system.tol2bus.pkt_count_system.cpu14.icache.mem_side::system.l2.cpu_side         2475                       # Packet count per connected master and slave (bytes)
system.tol2bus.pkt_count_system.cpu14.dcache.mem_side::system.l2.cpu_side         2028                       # Packet count per connected master and slave (bytes)
system.tol2bus.pkt_count_system.cpu15.icache.mem_side::system.l2.cpu_side         2968                       # Packet count per connected master and slave (bytes)
system.tol2bus.pkt_count_system.cpu15.dcache.mem_side::system.l2.cpu_side         3140                       # Packet count per connected master and slave (bytes)
system.tol2bus.pkt_count::total                114681                       # Packet count per connected master and slave (bytes)
system.tol2bus.pkt_size_system.cpu00.icache.mem_side::system.l2.cpu_side       977280                       # Cumulative packet size per connected master and slave (bytes)
system.tol2bus.pkt_size_system.cpu00.dcache.mem_side::system.l2.cpu_side      1270400                       # Cumulative packet size per connected master and slave (bytes)
system.tol2bus.pkt_size_system.cpu01.icache.mem_side::system.l2.cpu_side        43264                       # Cumulative packet size per connected master and slave (bytes)
system.tol2bus.pkt_size_system.cpu01.dcache.mem_side::system.l2.cpu_side        29120                       # Cumulative packet size per connected master and slave (bytes)
system.tol2bus.pkt_size_system.cpu02.icache.mem_side::system.l2.cpu_side        39744                       # Cumulative packet size per connected master and slave (bytes)
system.tol2bus.pkt_size_system.cpu02.dcache.mem_side::system.l2.cpu_side        34368                       # Cumulative packet size per connected master and slave (bytes)
system.tol2bus.pkt_size_system.cpu03.icache.mem_side::system.l2.cpu_side        36672                       # Cumulative packet size per connected master and slave (bytes)
system.tol2bus.pkt_size_system.cpu03.dcache.mem_side::system.l2.cpu_side        28992                       # Cumulative packet size per connected master and slave (bytes)
system.tol2bus.pkt_size_system.cpu04.icache.mem_side::system.l2.cpu_side       114752                       # Cumulative packet size per connected master and slave (bytes)
system.tol2bus.pkt_size_system.cpu04.dcache.mem_side::system.l2.cpu_side        44096                       # Cumulative packet size per connected master and slave (bytes)
system.tol2bus.pkt_size_system.cpu05.icache.mem_side::system.l2.cpu_side       103744                       # Cumulative packet size per connected master and slave (bytes)
system.tol2bus.pkt_size_system.cpu05.dcache.mem_side::system.l2.cpu_side        43904                       # Cumulative packet size per connected master and slave (bytes)
system.tol2bus.pkt_size_system.cpu06.icache.mem_side::system.l2.cpu_side        31680                       # Cumulative packet size per connected master and slave (bytes)
system.tol2bus.pkt_size_system.cpu06.dcache.mem_side::system.l2.cpu_side        31616                       # Cumulative packet size per connected master and slave (bytes)
system.tol2bus.pkt_size_system.cpu07.icache.mem_side::system.l2.cpu_side       120384                       # Cumulative packet size per connected master and slave (bytes)
system.tol2bus.pkt_size_system.cpu07.dcache.mem_side::system.l2.cpu_side        42624                       # Cumulative packet size per connected master and slave (bytes)
system.tol2bus.pkt_size_system.cpu08.icache.mem_side::system.l2.cpu_side       103424                       # Cumulative packet size per connected master and slave (bytes)
system.tol2bus.pkt_size_system.cpu08.dcache.mem_side::system.l2.cpu_side        39744                       # Cumulative packet size per connected master and slave (bytes)
system.tol2bus.pkt_size_system.cpu09.icache.mem_side::system.l2.cpu_side        35648                       # Cumulative packet size per connected master and slave (bytes)
system.tol2bus.pkt_size_system.cpu09.dcache.mem_side::system.l2.cpu_side        30720                       # Cumulative packet size per connected master and slave (bytes)
system.tol2bus.pkt_size_system.cpu10.icache.mem_side::system.l2.cpu_side        38656                       # Cumulative packet size per connected master and slave (bytes)
system.tol2bus.pkt_size_system.cpu10.dcache.mem_side::system.l2.cpu_side        32960                       # Cumulative packet size per connected master and slave (bytes)
system.tol2bus.pkt_size_system.cpu11.icache.mem_side::system.l2.cpu_side       118976                       # Cumulative packet size per connected master and slave (bytes)
system.tol2bus.pkt_size_system.cpu11.dcache.mem_side::system.l2.cpu_side        46080                       # Cumulative packet size per connected master and slave (bytes)
system.tol2bus.pkt_size_system.cpu12.icache.mem_side::system.l2.cpu_side        60416                       # Cumulative packet size per connected master and slave (bytes)
system.tol2bus.pkt_size_system.cpu12.dcache.mem_side::system.l2.cpu_side        38976                       # Cumulative packet size per connected master and slave (bytes)
system.tol2bus.pkt_size_system.cpu13.icache.mem_side::system.l2.cpu_side        43456                       # Cumulative packet size per connected master and slave (bytes)
system.tol2bus.pkt_size_system.cpu13.dcache.mem_side::system.l2.cpu_side        28096                       # Cumulative packet size per connected master and slave (bytes)
system.tol2bus.pkt_size_system.cpu14.icache.mem_side::system.l2.cpu_side        95552                       # Cumulative packet size per connected master and slave (bytes)
system.tol2bus.pkt_size_system.cpu14.dcache.mem_side::system.l2.cpu_side        47552                       # Cumulative packet size per connected master and slave (bytes)
system.tol2bus.pkt_size_system.cpu15.icache.mem_side::system.l2.cpu_side       116224                       # Cumulative packet size per connected master and slave (bytes)
system.tol2bus.pkt_size_system.cpu15.dcache.mem_side::system.l2.cpu_side        47232                       # Cumulative packet size per connected master and slave (bytes)
system.tol2bus.pkt_size::total                3916352                       # Cumulative packet size per connected master and slave (bytes)
system.tol2bus.snoops                            7592                       # Total snoops (count)
system.tol2bus.snoop_fanout::samples            45476                       # Request fanout histogram
system.tol2bus.snoop_fanout::mean            2.412107                       # Request fanout histogram
system.tol2bus.snoop_fanout::stdev           3.919727                       # Request fanout histogram
system.tol2bus.snoop_fanout::underflows             0      0.00%      0.00% # Request fanout histogram
system.tol2bus.snoop_fanout::0                  23308     51.25%     51.25% # Request fanout histogram
system.tol2bus.snoop_fanout::1                   7456     16.40%     67.65% # Request fanout histogram
system.tol2bus.snoop_fanout::2                   2652      5.83%     73.48% # Request fanout histogram
system.tol2bus.snoop_fanout::3                   1511      3.32%     76.80% # Request fanout histogram
system.tol2bus.snoop_fanout::4                   1279      2.81%     79.62% # Request fanout histogram
system.tol2bus.snoop_fanout::5                   1148      2.52%     82.14% # Request fanout histogram
system.tol2bus.snoop_fanout::6                   1044      2.30%     84.44% # Request fanout histogram
system.tol2bus.snoop_fanout::7                    906      1.99%     86.43% # Request fanout histogram
system.tol2bus.snoop_fanout::8                    912      2.01%     88.43% # Request fanout histogram
system.tol2bus.snoop_fanout::9                    905      1.99%     90.42% # Request fanout histogram
system.tol2bus.snoop_fanout::10                   786      1.73%     92.15% # Request fanout histogram
system.tol2bus.snoop_fanout::11                   842      1.85%     94.00% # Request fanout histogram
system.tol2bus.snoop_fanout::12                   775      1.70%     95.71% # Request fanout histogram
system.tol2bus.snoop_fanout::13                   733      1.61%     97.32% # Request fanout histogram
system.tol2bus.snoop_fanout::14                   739      1.63%     98.94% # Request fanout histogram
system.tol2bus.snoop_fanout::15                   480      1.06%    100.00% # Request fanout histogram
system.tol2bus.snoop_fanout::16                     0      0.00%    100.00% # Request fanout histogram
system.tol2bus.snoop_fanout::17                     0      0.00%    100.00% # Request fanout histogram
system.tol2bus.snoop_fanout::18                     0      0.00%    100.00% # Request fanout histogram
system.tol2bus.snoop_fanout::19                     0      0.00%    100.00% # Request fanout histogram
system.tol2bus.snoop_fanout::20                     0      0.00%    100.00% # Request fanout histogram
system.tol2bus.snoop_fanout::21                     0      0.00%    100.00% # Request fanout histogram
system.tol2bus.snoop_fanout::22                     0      0.00%    100.00% # Request fanout histogram
system.tol2bus.snoop_fanout::23                     0      0.00%    100.00% # Request fanout histogram
system.tol2bus.snoop_fanout::24                     0      0.00%    100.00% # Request fanout histogram
system.tol2bus.snoop_fanout::25                     0      0.00%    100.00% # Request fanout histogram
system.tol2bus.snoop_fanout::26                     0      0.00%    100.00% # Request fanout histogram
system.tol2bus.snoop_fanout::27                     0      0.00%    100.00% # Request fanout histogram
system.tol2bus.snoop_fanout::28                     0      0.00%    100.00% # Request fanout histogram
system.tol2bus.snoop_fanout::29                     0      0.00%    100.00% # Request fanout histogram
system.tol2bus.snoop_fanout::30                     0      0.00%    100.00% # Request fanout histogram
system.tol2bus.snoop_fanout::31                     0      0.00%    100.00% # Request fanout histogram
system.tol2bus.snoop_fanout::32                     0      0.00%    100.00% # Request fanout histogram
system.tol2bus.snoop_fanout::overflows              0      0.00%    100.00% # Request fanout histogram
system.tol2bus.snoop_fanout::min_value              0                       # Request fanout histogram
system.tol2bus.snoop_fanout::max_value             15                       # Request fanout histogram
system.tol2bus.snoop_fanout::total              45476                       # Request fanout histogram
system.tol2bus.reqLayer0.occupancy          155840951                       # Layer occupancy (ticks)
system.tol2bus.reqLayer0.utilization             12.2                       # Layer utilization (%)
system.tol2bus.respLayer0.occupancy          29752847                       # Layer occupancy (ticks)
system.tol2bus.respLayer0.utilization             2.3                       # Layer utilization (%)
system.tol2bus.respLayer1.occupancy          44003470                       # Layer occupancy (ticks)
system.tol2bus.respLayer1.utilization             3.4                       # Layer utilization (%)
system.tol2bus.respLayer2.occupancy           2074361                       # Layer occupancy (ticks)
system.tol2bus.respLayer2.utilization             0.2                       # Layer utilization (%)
system.tol2bus.respLayer3.occupancy           1913754                       # Layer occupancy (ticks)
system.tol2bus.respLayer3.utilization             0.1                       # Layer utilization (%)
system.tol2bus.respLayer4.occupancy           1974957                       # Layer occupancy (ticks)
system.tol2bus.respLayer4.utilization             0.2                       # Layer utilization (%)
system.tol2bus.respLayer5.occupancy           1870401                       # Layer occupancy (ticks)
system.tol2bus.respLayer5.utilization             0.1                       # Layer utilization (%)
system.tol2bus.respLayer6.occupancy           1870843                       # Layer occupancy (ticks)
system.tol2bus.respLayer6.utilization             0.1                       # Layer utilization (%)
system.tol2bus.respLayer7.occupancy           1773535                       # Layer occupancy (ticks)
system.tol2bus.respLayer7.utilization             0.1                       # Layer utilization (%)
system.tol2bus.respLayer8.occupancy           4316233                       # Layer occupancy (ticks)
system.tol2bus.respLayer8.utilization             0.3                       # Layer utilization (%)
system.tol2bus.respLayer9.occupancy           4665012                       # Layer occupancy (ticks)
system.tol2bus.respLayer9.utilization             0.4                       # Layer utilization (%)
system.tol2bus.respLayer10.occupancy          4021258                       # Layer occupancy (ticks)
system.tol2bus.respLayer10.utilization            0.3                       # Layer utilization (%)
system.tol2bus.respLayer11.occupancy          4538185                       # Layer occupancy (ticks)
system.tol2bus.respLayer11.utilization            0.4                       # Layer utilization (%)
system.tol2bus.respLayer12.occupancy          1685964                       # Layer occupancy (ticks)
system.tol2bus.respLayer12.utilization            0.1                       # Layer utilization (%)
system.tol2bus.respLayer13.occupancy          1712662                       # Layer occupancy (ticks)
system.tol2bus.respLayer13.utilization            0.1                       # Layer utilization (%)
system.tol2bus.respLayer14.occupancy          4507069                       # Layer occupancy (ticks)
system.tol2bus.respLayer14.utilization            0.4                       # Layer utilization (%)
system.tol2bus.respLayer15.occupancy          4979123                       # Layer occupancy (ticks)
system.tol2bus.respLayer15.utilization            0.4                       # Layer utilization (%)
system.tol2bus.respLayer16.occupancy          3980122                       # Layer occupancy (ticks)
system.tol2bus.respLayer16.utilization            0.3                       # Layer utilization (%)
system.tol2bus.respLayer17.occupancy          3779349                       # Layer occupancy (ticks)
system.tol2bus.respLayer17.utilization            0.3                       # Layer utilization (%)
system.tol2bus.respLayer18.occupancy          1826013                       # Layer occupancy (ticks)
system.tol2bus.respLayer18.utilization            0.1                       # Layer utilization (%)
system.tol2bus.respLayer19.occupancy          1825688                       # Layer occupancy (ticks)
system.tol2bus.respLayer19.utilization            0.1                       # Layer utilization (%)
system.tol2bus.respLayer20.occupancy          1932292                       # Layer occupancy (ticks)
system.tol2bus.respLayer20.utilization            0.2                       # Layer utilization (%)
system.tol2bus.respLayer21.occupancy          1857988                       # Layer occupancy (ticks)
system.tol2bus.respLayer21.utilization            0.1                       # Layer utilization (%)
system.tol2bus.respLayer22.occupancy          4422214                       # Layer occupancy (ticks)
system.tol2bus.respLayer22.utilization            0.3                       # Layer utilization (%)
system.tol2bus.respLayer23.occupancy          5276491                       # Layer occupancy (ticks)
system.tol2bus.respLayer23.utilization            0.4                       # Layer utilization (%)
system.tol2bus.respLayer24.occupancy          2681979                       # Layer occupancy (ticks)
system.tol2bus.respLayer24.utilization            0.2                       # Layer utilization (%)
system.tol2bus.respLayer25.occupancy          2514947                       # Layer occupancy (ticks)
system.tol2bus.respLayer25.utilization            0.2                       # Layer utilization (%)
system.tol2bus.respLayer26.occupancy          2140915                       # Layer occupancy (ticks)
system.tol2bus.respLayer26.utilization            0.2                       # Layer utilization (%)
system.tol2bus.respLayer27.occupancy          1768320                       # Layer occupancy (ticks)
system.tol2bus.respLayer27.utilization            0.1                       # Layer utilization (%)
system.tol2bus.respLayer28.occupancy          3753079                       # Layer occupancy (ticks)
system.tol2bus.respLayer28.utilization            0.3                       # Layer utilization (%)
system.tol2bus.respLayer29.occupancy          3343390                       # Layer occupancy (ticks)
system.tol2bus.respLayer29.utilization            0.3                       # Layer utilization (%)
system.tol2bus.respLayer30.occupancy          4359201                       # Layer occupancy (ticks)
system.tol2bus.respLayer30.utilization            0.3                       # Layer utilization (%)
system.tol2bus.respLayer31.occupancy          5603833                       # Layer occupancy (ticks)
system.tol2bus.respLayer31.utilization            0.4                       # Layer utilization (%)

---------- End Simulation Statistics   ----------
