
---------- Begin Simulation Statistics ----------
sim_seconds                                  0.001320                       # Number of seconds simulated
sim_ticks                                  1319996358                       # Number of ticks simulated
final_tick                                 1319996358                       # Number of ticks from beginning of simulation (restored from checkpoints and never reset)
sim_freq                                 1000000000000                       # Frequency of simulated ticks
host_inst_rate                                 225070                       # Simulator instruction rate (inst/s)
host_op_rate                                   225069                       # Simulator op (including micro ops) rate (op/s)
host_tick_rate                              132292370                       # Simulator tick rate (ticks/s)
host_mem_usage                                 697440                       # Number of bytes of host memory used
host_seconds                                     9.98                       # Real time elapsed on the host
sim_insts                                     2245707                       # Number of instructions simulated
sim_ops                                       2245707                       # Number of ops (including micro ops) simulated
system.voltage_domain.voltage                       1                       # Voltage in Volts
system.clk_domain.clock                          1000                       # Clock period in ticks
system.mem_ctrls.bytes_read::cpu00.inst        118784                       # Number of bytes read from this memory
system.mem_ctrls.bytes_read::cpu00.data        376576                       # Number of bytes read from this memory
system.mem_ctrls.bytes_read::cpu01.inst         11328                       # Number of bytes read from this memory
system.mem_ctrls.bytes_read::cpu01.data          5824                       # Number of bytes read from this memory
system.mem_ctrls.bytes_read::cpu02.inst          4032                       # Number of bytes read from this memory
system.mem_ctrls.bytes_read::cpu02.data          5312                       # Number of bytes read from this memory
system.mem_ctrls.bytes_read::cpu03.inst           832                       # Number of bytes read from this memory
system.mem_ctrls.bytes_read::cpu03.data          4352                       # Number of bytes read from this memory
system.mem_ctrls.bytes_read::cpu04.inst           320                       # Number of bytes read from this memory
system.mem_ctrls.bytes_read::cpu04.data          4288                       # Number of bytes read from this memory
system.mem_ctrls.bytes_read::cpu05.inst          1024                       # Number of bytes read from this memory
system.mem_ctrls.bytes_read::cpu05.data          5568                       # Number of bytes read from this memory
system.mem_ctrls.bytes_read::cpu06.inst           256                       # Number of bytes read from this memory
system.mem_ctrls.bytes_read::cpu06.data          4864                       # Number of bytes read from this memory
system.mem_ctrls.bytes_read::cpu07.inst          1472                       # Number of bytes read from this memory
system.mem_ctrls.bytes_read::cpu07.data          5312                       # Number of bytes read from this memory
system.mem_ctrls.bytes_read::cpu08.inst          1664                       # Number of bytes read from this memory
system.mem_ctrls.bytes_read::cpu08.data          5376                       # Number of bytes read from this memory
system.mem_ctrls.bytes_read::cpu09.inst           384                       # Number of bytes read from this memory
system.mem_ctrls.bytes_read::cpu09.data          4928                       # Number of bytes read from this memory
system.mem_ctrls.bytes_read::cpu10.inst           320                       # Number of bytes read from this memory
system.mem_ctrls.bytes_read::cpu10.data          4416                       # Number of bytes read from this memory
system.mem_ctrls.bytes_read::cpu11.inst           256                       # Number of bytes read from this memory
system.mem_ctrls.bytes_read::cpu11.data          4416                       # Number of bytes read from this memory
system.mem_ctrls.bytes_read::cpu12.inst           832                       # Number of bytes read from this memory
system.mem_ctrls.bytes_read::cpu12.data          5504                       # Number of bytes read from this memory
system.mem_ctrls.bytes_read::cpu13.inst          4480                       # Number of bytes read from this memory
system.mem_ctrls.bytes_read::cpu13.data          5696                       # Number of bytes read from this memory
system.mem_ctrls.bytes_read::cpu14.inst          1280                       # Number of bytes read from this memory
system.mem_ctrls.bytes_read::cpu14.data          5760                       # Number of bytes read from this memory
system.mem_ctrls.bytes_read::cpu15.inst           576                       # Number of bytes read from this memory
system.mem_ctrls.bytes_read::cpu15.data          5312                       # Number of bytes read from this memory
system.mem_ctrls.bytes_read::total             601344                       # Number of bytes read from this memory
system.mem_ctrls.bytes_inst_read::cpu00.inst       118784                       # Number of instructions bytes read from this memory
system.mem_ctrls.bytes_inst_read::cpu01.inst        11328                       # Number of instructions bytes read from this memory
system.mem_ctrls.bytes_inst_read::cpu02.inst         4032                       # Number of instructions bytes read from this memory
system.mem_ctrls.bytes_inst_read::cpu03.inst          832                       # Number of instructions bytes read from this memory
system.mem_ctrls.bytes_inst_read::cpu04.inst          320                       # Number of instructions bytes read from this memory
system.mem_ctrls.bytes_inst_read::cpu05.inst         1024                       # Number of instructions bytes read from this memory
system.mem_ctrls.bytes_inst_read::cpu06.inst          256                       # Number of instructions bytes read from this memory
system.mem_ctrls.bytes_inst_read::cpu07.inst         1472                       # Number of instructions bytes read from this memory
system.mem_ctrls.bytes_inst_read::cpu08.inst         1664                       # Number of instructions bytes read from this memory
system.mem_ctrls.bytes_inst_read::cpu09.inst          384                       # Number of instructions bytes read from this memory
system.mem_ctrls.bytes_inst_read::cpu10.inst          320                       # Number of instructions bytes read from this memory
system.mem_ctrls.bytes_inst_read::cpu11.inst          256                       # Number of instructions bytes read from this memory
system.mem_ctrls.bytes_inst_read::cpu12.inst          832                       # Number of instructions bytes read from this memory
system.mem_ctrls.bytes_inst_read::cpu13.inst         4480                       # Number of instructions bytes read from this memory
system.mem_ctrls.bytes_inst_read::cpu14.inst         1280                       # Number of instructions bytes read from this memory
system.mem_ctrls.bytes_inst_read::cpu15.inst          576                       # Number of instructions bytes read from this memory
system.mem_ctrls.bytes_inst_read::total        147840                       # Number of instructions bytes read from this memory
system.mem_ctrls.num_reads::cpu00.inst           1856                       # Number of read requests responded to by this memory
system.mem_ctrls.num_reads::cpu00.data           5884                       # Number of read requests responded to by this memory
system.mem_ctrls.num_reads::cpu01.inst            177                       # Number of read requests responded to by this memory
system.mem_ctrls.num_reads::cpu01.data             91                       # Number of read requests responded to by this memory
system.mem_ctrls.num_reads::cpu02.inst             63                       # Number of read requests responded to by this memory
system.mem_ctrls.num_reads::cpu02.data             83                       # Number of read requests responded to by this memory
system.mem_ctrls.num_reads::cpu03.inst             13                       # Number of read requests responded to by this memory
system.mem_ctrls.num_reads::cpu03.data             68                       # Number of read requests responded to by this memory
system.mem_ctrls.num_reads::cpu04.inst              5                       # Number of read requests responded to by this memory
system.mem_ctrls.num_reads::cpu04.data             67                       # Number of read requests responded to by this memory
system.mem_ctrls.num_reads::cpu05.inst             16                       # Number of read requests responded to by this memory
system.mem_ctrls.num_reads::cpu05.data             87                       # Number of read requests responded to by this memory
system.mem_ctrls.num_reads::cpu06.inst              4                       # Number of read requests responded to by this memory
system.mem_ctrls.num_reads::cpu06.data             76                       # Number of read requests responded to by this memory
system.mem_ctrls.num_reads::cpu07.inst             23                       # Number of read requests responded to by this memory
system.mem_ctrls.num_reads::cpu07.data             83                       # Number of read requests responded to by this memory
system.mem_ctrls.num_reads::cpu08.inst             26                       # Number of read requests responded to by this memory
system.mem_ctrls.num_reads::cpu08.data             84                       # Number of read requests responded to by this memory
system.mem_ctrls.num_reads::cpu09.inst              6                       # Number of read requests responded to by this memory
system.mem_ctrls.num_reads::cpu09.data             77                       # Number of read requests responded to by this memory
system.mem_ctrls.num_reads::cpu10.inst              5                       # Number of read requests responded to by this memory
system.mem_ctrls.num_reads::cpu10.data             69                       # Number of read requests responded to by this memory
system.mem_ctrls.num_reads::cpu11.inst              4                       # Number of read requests responded to by this memory
system.mem_ctrls.num_reads::cpu11.data             69                       # Number of read requests responded to by this memory
system.mem_ctrls.num_reads::cpu12.inst             13                       # Number of read requests responded to by this memory
system.mem_ctrls.num_reads::cpu12.data             86                       # Number of read requests responded to by this memory
system.mem_ctrls.num_reads::cpu13.inst             70                       # Number of read requests responded to by this memory
system.mem_ctrls.num_reads::cpu13.data             89                       # Number of read requests responded to by this memory
system.mem_ctrls.num_reads::cpu14.inst             20                       # Number of read requests responded to by this memory
system.mem_ctrls.num_reads::cpu14.data             90                       # Number of read requests responded to by this memory
system.mem_ctrls.num_reads::cpu15.inst              9                       # Number of read requests responded to by this memory
system.mem_ctrls.num_reads::cpu15.data             83                       # Number of read requests responded to by this memory
system.mem_ctrls.num_reads::total                9396                       # Number of read requests responded to by this memory
system.mem_ctrls.bw_read::cpu00.inst         89988127                       # Total read bandwidth from this memory (bytes/s)
system.mem_ctrls.bw_read::cpu00.data        285285636                       # Total read bandwidth from this memory (bytes/s)
system.mem_ctrls.bw_read::cpu01.inst          8581842                       # Total read bandwidth from this memory (bytes/s)
system.mem_ctrls.bw_read::cpu01.data          4412133                       # Total read bandwidth from this memory (bytes/s)
system.mem_ctrls.bw_read::cpu02.inst          3054554                       # Total read bandwidth from this memory (bytes/s)
system.mem_ctrls.bw_read::cpu02.data          4024254                       # Total read bandwidth from this memory (bytes/s)
system.mem_ctrls.bw_read::cpu03.inst           630305                       # Total read bandwidth from this memory (bytes/s)
system.mem_ctrls.bw_read::cpu03.data          3296979                       # Total read bandwidth from this memory (bytes/s)
system.mem_ctrls.bw_read::cpu04.inst           242425                       # Total read bandwidth from this memory (bytes/s)
system.mem_ctrls.bw_read::cpu04.data          3248494                       # Total read bandwidth from this memory (bytes/s)
system.mem_ctrls.bw_read::cpu05.inst           775760                       # Total read bandwidth from this memory (bytes/s)
system.mem_ctrls.bw_read::cpu05.data          4218193                       # Total read bandwidth from this memory (bytes/s)
system.mem_ctrls.bw_read::cpu06.inst           193940                       # Total read bandwidth from this memory (bytes/s)
system.mem_ctrls.bw_read::cpu06.data          3684859                       # Total read bandwidth from this memory (bytes/s)
system.mem_ctrls.bw_read::cpu07.inst          1115155                       # Total read bandwidth from this memory (bytes/s)
system.mem_ctrls.bw_read::cpu07.data          4024254                       # Total read bandwidth from this memory (bytes/s)
system.mem_ctrls.bw_read::cpu08.inst          1260610                       # Total read bandwidth from this memory (bytes/s)
system.mem_ctrls.bw_read::cpu08.data          4072739                       # Total read bandwidth from this memory (bytes/s)
system.mem_ctrls.bw_read::cpu09.inst           290910                       # Total read bandwidth from this memory (bytes/s)
system.mem_ctrls.bw_read::cpu09.data          3733344                       # Total read bandwidth from this memory (bytes/s)
system.mem_ctrls.bw_read::cpu10.inst           242425                       # Total read bandwidth from this memory (bytes/s)
system.mem_ctrls.bw_read::cpu10.data          3345464                       # Total read bandwidth from this memory (bytes/s)
system.mem_ctrls.bw_read::cpu11.inst           193940                       # Total read bandwidth from this memory (bytes/s)
system.mem_ctrls.bw_read::cpu11.data          3345464                       # Total read bandwidth from this memory (bytes/s)
system.mem_ctrls.bw_read::cpu12.inst           630305                       # Total read bandwidth from this memory (bytes/s)
system.mem_ctrls.bw_read::cpu12.data          4169708                       # Total read bandwidth from this memory (bytes/s)
system.mem_ctrls.bw_read::cpu13.inst          3393949                       # Total read bandwidth from this memory (bytes/s)
system.mem_ctrls.bw_read::cpu13.data          4315163                       # Total read bandwidth from this memory (bytes/s)
system.mem_ctrls.bw_read::cpu14.inst           969700                       # Total read bandwidth from this memory (bytes/s)
system.mem_ctrls.bw_read::cpu14.data          4363648                       # Total read bandwidth from this memory (bytes/s)
system.mem_ctrls.bw_read::cpu15.inst           436365                       # Total read bandwidth from this memory (bytes/s)
system.mem_ctrls.bw_read::cpu15.data          4024254                       # Total read bandwidth from this memory (bytes/s)
system.mem_ctrls.bw_read::total             455564893                       # Total read bandwidth from this memory (bytes/s)
system.mem_ctrls.bw_inst_read::cpu00.inst     89988127                       # Instruction read bandwidth from this memory (bytes/s)
system.mem_ctrls.bw_inst_read::cpu01.inst      8581842                       # Instruction read bandwidth from this memory (bytes/s)
system.mem_ctrls.bw_inst_read::cpu02.inst      3054554                       # Instruction read bandwidth from this memory (bytes/s)
system.mem_ctrls.bw_inst_read::cpu03.inst       630305                       # Instruction read bandwidth from this memory (bytes/s)
system.mem_ctrls.bw_inst_read::cpu04.inst       242425                       # Instruction read bandwidth from this memory (bytes/s)
system.mem_ctrls.bw_inst_read::cpu05.inst       775760                       # Instruction read bandwidth from this memory (bytes/s)
system.mem_ctrls.bw_inst_read::cpu06.inst       193940                       # Instruction read bandwidth from this memory (bytes/s)
system.mem_ctrls.bw_inst_read::cpu07.inst      1115155                       # Instruction read bandwidth from this memory (bytes/s)
system.mem_ctrls.bw_inst_read::cpu08.inst      1260610                       # Instruction read bandwidth from this memory (bytes/s)
system.mem_ctrls.bw_inst_read::cpu09.inst       290910                       # Instruction read bandwidth from this memory (bytes/s)
system.mem_ctrls.bw_inst_read::cpu10.inst       242425                       # Instruction read bandwidth from this memory (bytes/s)
system.mem_ctrls.bw_inst_read::cpu11.inst       193940                       # Instruction read bandwidth from this memory (bytes/s)
system.mem_ctrls.bw_inst_read::cpu12.inst       630305                       # Instruction read bandwidth from this memory (bytes/s)
system.mem_ctrls.bw_inst_read::cpu13.inst      3393949                       # Instruction read bandwidth from this memory (bytes/s)
system.mem_ctrls.bw_inst_read::cpu14.inst       969700                       # Instruction read bandwidth from this memory (bytes/s)
system.mem_ctrls.bw_inst_read::cpu15.inst       436365                       # Instruction read bandwidth from this memory (bytes/s)
system.mem_ctrls.bw_inst_read::total        112000309                       # Instruction read bandwidth from this memory (bytes/s)
system.mem_ctrls.bw_total::cpu00.inst        89988127                       # Total bandwidth to/from this memory (bytes/s)
system.mem_ctrls.bw_total::cpu00.data       285285636                       # Total bandwidth to/from this memory (bytes/s)
system.mem_ctrls.bw_total::cpu01.inst         8581842                       # Total bandwidth to/from this memory (bytes/s)
system.mem_ctrls.bw_total::cpu01.data         4412133                       # Total bandwidth to/from this memory (bytes/s)
system.mem_ctrls.bw_total::cpu02.inst         3054554                       # Total bandwidth to/from this memory (bytes/s)
system.mem_ctrls.bw_total::cpu02.data         4024254                       # Total bandwidth to/from this memory (bytes/s)
system.mem_ctrls.bw_total::cpu03.inst          630305                       # Total bandwidth to/from this memory (bytes/s)
system.mem_ctrls.bw_total::cpu03.data         3296979                       # Total bandwidth to/from this memory (bytes/s)
system.mem_ctrls.bw_total::cpu04.inst          242425                       # Total bandwidth to/from this memory (bytes/s)
system.mem_ctrls.bw_total::cpu04.data         3248494                       # Total bandwidth to/from this memory (bytes/s)
system.mem_ctrls.bw_total::cpu05.inst          775760                       # Total bandwidth to/from this memory (bytes/s)
system.mem_ctrls.bw_total::cpu05.data         4218193                       # Total bandwidth to/from this memory (bytes/s)
system.mem_ctrls.bw_total::cpu06.inst          193940                       # Total bandwidth to/from this memory (bytes/s)
system.mem_ctrls.bw_total::cpu06.data         3684859                       # Total bandwidth to/from this memory (bytes/s)
system.mem_ctrls.bw_total::cpu07.inst         1115155                       # Total bandwidth to/from this memory (bytes/s)
system.mem_ctrls.bw_total::cpu07.data         4024254                       # Total bandwidth to/from this memory (bytes/s)
system.mem_ctrls.bw_total::cpu08.inst         1260610                       # Total bandwidth to/from this memory (bytes/s)
system.mem_ctrls.bw_total::cpu08.data         4072739                       # Total bandwidth to/from this memory (bytes/s)
system.mem_ctrls.bw_total::cpu09.inst          290910                       # Total bandwidth to/from this memory (bytes/s)
system.mem_ctrls.bw_total::cpu09.data         3733344                       # Total bandwidth to/from this memory (bytes/s)
system.mem_ctrls.bw_total::cpu10.inst          242425                       # Total bandwidth to/from this memory (bytes/s)
system.mem_ctrls.bw_total::cpu10.data         3345464                       # Total bandwidth to/from this memory (bytes/s)
system.mem_ctrls.bw_total::cpu11.inst          193940                       # Total bandwidth to/from this memory (bytes/s)
system.mem_ctrls.bw_total::cpu11.data         3345464                       # Total bandwidth to/from this memory (bytes/s)
system.mem_ctrls.bw_total::cpu12.inst          630305                       # Total bandwidth to/from this memory (bytes/s)
system.mem_ctrls.bw_total::cpu12.data         4169708                       # Total bandwidth to/from this memory (bytes/s)
system.mem_ctrls.bw_total::cpu13.inst         3393949                       # Total bandwidth to/from this memory (bytes/s)
system.mem_ctrls.bw_total::cpu13.data         4315163                       # Total bandwidth to/from this memory (bytes/s)
system.mem_ctrls.bw_total::cpu14.inst          969700                       # Total bandwidth to/from this memory (bytes/s)
system.mem_ctrls.bw_total::cpu14.data         4363648                       # Total bandwidth to/from this memory (bytes/s)
system.mem_ctrls.bw_total::cpu15.inst          436365                       # Total bandwidth to/from this memory (bytes/s)
system.mem_ctrls.bw_total::cpu15.data         4024254                       # Total bandwidth to/from this memory (bytes/s)
system.mem_ctrls.bw_total::total            455564893                       # Total bandwidth to/from this memory (bytes/s)
system.cpu00.branchPred.lookups                132065                       # Number of BP lookups
system.cpu00.branchPred.condPredicted           73489                       # Number of conditional branches predicted
system.cpu00.branchPred.condIncorrect            5670                       # Number of conditional branches incorrect
system.cpu00.branchPred.BTBLookups              86909                       # Number of BTB lookups
system.cpu00.branchPred.BTBHits                 66269                       # Number of BTB hits
system.cpu00.branchPred.BTBCorrect                  0                       # Number of correct BTB predictions (this stat may not work properly.
system.cpu00.branchPred.BTBHitPct           76.251021                       # BTB Hit Percentage
system.cpu00.branchPred.usedRAS                 26444                       # Number of times the RAS was used to get a target.
system.cpu00.branchPred.RASInCorrect               82                       # Number of incorrect RAS predictions.
system.cpu00.branchPred.indirectLookups          3624                       # Number of indirect predictor lookups.
system.cpu00.branchPred.indirectHits             2882                       # Number of indirect target hits.
system.cpu00.branchPred.indirectMisses            742                       # Number of indirect misses.
system.cpu00.branchPredindirectMispredicted          255                       # Number of mispredicted indirect branches.
system.cpu_voltage_domain.voltage                   1                       # Voltage in Volts
system.cpu_clk_domain.clock                      1242                       # Clock period in ticks
system.cpu00.dtb.fetch_hits                         0                       # ITB hits
system.cpu00.dtb.fetch_misses                       0                       # ITB misses
system.cpu00.dtb.fetch_acv                          0                       # ITB acv
system.cpu00.dtb.fetch_accesses                     0                       # ITB accesses
system.cpu00.dtb.read_hits                     180024                       # DTB read hits
system.cpu00.dtb.read_misses                      618                       # DTB read misses
system.cpu00.dtb.read_acv                           0                       # DTB read access violations
system.cpu00.dtb.read_accesses                 180642                       # DTB read accesses
system.cpu00.dtb.write_hits                    127497                       # DTB write hits
system.cpu00.dtb.write_misses                    1131                       # DTB write misses
system.cpu00.dtb.write_acv                          0                       # DTB write access violations
system.cpu00.dtb.write_accesses                128628                       # DTB write accesses
system.cpu00.dtb.data_hits                     307521                       # DTB hits
system.cpu00.dtb.data_misses                     1749                       # DTB misses
system.cpu00.dtb.data_acv                           0                       # DTB access violations
system.cpu00.dtb.data_accesses                 309270                       # DTB accesses
system.cpu00.itb.fetch_hits                    148773                       # ITB hits
system.cpu00.itb.fetch_misses                     157                       # ITB misses
system.cpu00.itb.fetch_acv                          0                       # ITB acv
system.cpu00.itb.fetch_accesses                148930                       # ITB accesses
system.cpu00.itb.read_hits                          0                       # DTB read hits
system.cpu00.itb.read_misses                        0                       # DTB read misses
system.cpu00.itb.read_acv                           0                       # DTB read access violations
system.cpu00.itb.read_accesses                      0                       # DTB read accesses
system.cpu00.itb.write_hits                         0                       # DTB write hits
system.cpu00.itb.write_misses                       0                       # DTB write misses
system.cpu00.itb.write_acv                          0                       # DTB write access violations
system.cpu00.itb.write_accesses                     0                       # DTB write accesses
system.cpu00.itb.data_hits                          0                       # DTB hits
system.cpu00.itb.data_misses                        0                       # DTB misses
system.cpu00.itb.data_acv                           0                       # DTB access violations
system.cpu00.itb.data_accesses                      0                       # DTB accesses
system.cpu00.workload.num_syscalls               2236                       # Number of system calls
system.cpu00.numCycles                         985829                       # number of cpu cycles simulated
system.cpu00.numWorkItemsStarted                    0                       # number of work items this cpu started
system.cpu00.numWorkItemsCompleted                  0                       # number of work items this cpu completed
system.cpu00.fetch.icacheStallCycles            85670                       # Number of cycles fetch is stalled on an Icache miss
system.cpu00.fetch.Insts                      1186268                       # Number of instructions fetch has processed
system.cpu00.fetch.Branches                    132065                       # Number of branches that fetch encountered
system.cpu00.fetch.predictedBranches            95595                       # Number of branches that fetch has predicted taken
system.cpu00.fetch.Cycles                      699025                       # Number of cycles fetch has run and was not squashing or blocked
system.cpu00.fetch.SquashCycles                 12700                       # Number of cycles fetch has spent squashing
system.cpu00.fetch.MiscStallCycles                521                       # Number of cycles fetch has spent waiting on interrupts, or bad addresses, or out of MSHRs
system.cpu00.fetch.PendingTrapStallCycles         6205                       # Number of stall cycles due to pending traps
system.cpu00.fetch.IcacheWaitRetryStallCycles          550                       # Number of stall cycles due to full MSHR
system.cpu00.fetch.CacheLines                  148773                       # Number of cache lines fetched
system.cpu00.fetch.IcacheSquashes                2660                       # Number of outstanding Icache misses that were squashed
system.cpu00.fetch.rateDist::samples           798321                       # Number of instructions fetched each cycle (Total)
system.cpu00.fetch.rateDist::mean            1.485954                       # Number of instructions fetched each cycle (Total)
system.cpu00.fetch.rateDist::stdev           2.742578                       # Number of instructions fetched each cycle (Total)
system.cpu00.fetch.rateDist::underflows             0      0.00%      0.00% # Number of instructions fetched each cycle (Total)
system.cpu00.fetch.rateDist::0                 581203     72.80%     72.80% # Number of instructions fetched each cycle (Total)
system.cpu00.fetch.rateDist::1                  16378      2.05%     74.85% # Number of instructions fetched each cycle (Total)
system.cpu00.fetch.rateDist::2                  17271      2.16%     77.02% # Number of instructions fetched each cycle (Total)
system.cpu00.fetch.rateDist::3                  16929      2.12%     79.14% # Number of instructions fetched each cycle (Total)
system.cpu00.fetch.rateDist::4                  37979      4.76%     83.90% # Number of instructions fetched each cycle (Total)
system.cpu00.fetch.rateDist::5                  15728      1.97%     85.87% # Number of instructions fetched each cycle (Total)
system.cpu00.fetch.rateDist::6                  18689      2.34%     88.21% # Number of instructions fetched each cycle (Total)
system.cpu00.fetch.rateDist::7                  11281      1.41%     89.62% # Number of instructions fetched each cycle (Total)
system.cpu00.fetch.rateDist::8                  82863     10.38%    100.00% # Number of instructions fetched each cycle (Total)
system.cpu00.fetch.rateDist::overflows              0      0.00%    100.00% # Number of instructions fetched each cycle (Total)
system.cpu00.fetch.rateDist::min_value              0                       # Number of instructions fetched each cycle (Total)
system.cpu00.fetch.rateDist::max_value              8                       # Number of instructions fetched each cycle (Total)
system.cpu00.fetch.rateDist::total             798321                       # Number of instructions fetched each cycle (Total)
system.cpu00.fetch.branchRate                0.133963                       # Number of branch fetches per cycle
system.cpu00.fetch.rate                      1.203320                       # Number of inst fetches per cycle
system.cpu00.decode.IdleCycles                  92164                       # Number of cycles decode is idle
system.cpu00.decode.BlockedCycles              538766                       # Number of cycles decode is blocked
system.cpu00.decode.RunCycles                  129646                       # Number of cycles decode is running
system.cpu00.decode.UnblockCycles               33119                       # Number of cycles decode is unblocking
system.cpu00.decode.SquashCycles                 4626                       # Number of cycles decode is squashing
system.cpu00.decode.BranchResolved              26435                       # Number of times decode resolved a branch
system.cpu00.decode.BranchMispred                1753                       # Number of times decode detected a branch misprediction
system.cpu00.decode.DecodedInsts              1123235                       # Number of instructions handled by decode
system.cpu00.decode.SquashedInsts                7290                       # Number of squashed instructions handled by decode
system.cpu00.rename.SquashCycles                 4626                       # Number of cycles rename is squashing
system.cpu00.rename.IdleCycles                 108003                       # Number of cycles rename is idle
system.cpu00.rename.BlockCycles                 87695                       # Number of cycles rename is blocking
system.cpu00.rename.serializeStallCycles       214321                       # count of cycles rename stalled for serializing inst
system.cpu00.rename.RunCycles                  147068                       # Number of cycles rename is running
system.cpu00.rename.UnblockCycles              236608                       # Number of cycles rename is unblocking
system.cpu00.rename.RenamedInsts              1104133                       # Number of instructions processed by rename
system.cpu00.rename.ROBFullEvents                2647                       # Number of times rename has blocked due to ROB full
system.cpu00.rename.IQFullEvents                21814                       # Number of times rename has blocked due to IQ full
system.cpu00.rename.LQFullEvents                 1518                       # Number of times rename has blocked due to LQ full
system.cpu00.rename.SQFullEvents               202437                       # Number of times rename has blocked due to SQ full
system.cpu00.rename.RenamedOperands            756867                       # Number of destination operands rename has renamed
system.cpu00.rename.RenameLookups             1366810                       # Number of register rename lookups that rename has made
system.cpu00.rename.int_rename_lookups        1208722                       # Number of integer rename lookups
system.cpu00.rename.fp_rename_lookups          155801                       # Number of floating rename lookups
system.cpu00.rename.CommittedMaps              668878                       # Number of HB maps that are committed
system.cpu00.rename.UndoneMaps                  87989                       # Number of HB maps that are undone due to squashing
system.cpu00.rename.serializingInsts             4022                       # count of serializing insts renamed
system.cpu00.rename.tempSerializingInsts         1658                       # count of temporary serializing insts renamed
system.cpu00.rename.skidInsts                  147885                       # count of insts added to the skid buffer
system.cpu00.memDep0.insertedLoads             179300                       # Number of loads inserted to the mem dependence unit.
system.cpu00.memDep0.insertedStores            134997                       # Number of stores inserted to the mem dependence unit.
system.cpu00.memDep0.conflictingLoads           31925                       # Number of conflicting loads.
system.cpu00.memDep0.conflictingStores          12032                       # Number of conflicting stores.
system.cpu00.iq.iqInstsAdded                   967202                       # Number of instructions added to the IQ (excludes non-spec)
system.cpu00.iq.iqNonSpecInstsAdded              2740                       # Number of non-speculative instructions added to the IQ
system.cpu00.iq.iqInstsIssued                  950447                       # Number of instructions issued
system.cpu00.iq.iqSquashedInstsIssued            1646                       # Number of squashed instructions issued
system.cpu00.iq.iqSquashedInstsExamined         99987                       # Number of squashed instructions iterated over during squash; mainly for profiling
system.cpu00.iq.iqSquashedOperandsExamined        50115                       # Number of squashed operands that are examined and possibly removed from graph
system.cpu00.iq.iqSquashedNonSpecRemoved          365                       # Number of squashed non-spec instructions that were removed
system.cpu00.iq.issued_per_cycle::samples       798321                       # Number of insts issued each cycle
system.cpu00.iq.issued_per_cycle::mean       1.190557                       # Number of insts issued each cycle
system.cpu00.iq.issued_per_cycle::stdev      1.949165                       # Number of insts issued each cycle
system.cpu00.iq.issued_per_cycle::underflows            0      0.00%      0.00% # Number of insts issued each cycle
system.cpu00.iq.issued_per_cycle::0            501209     62.78%     62.78% # Number of insts issued each cycle
system.cpu00.iq.issued_per_cycle::1             73332      9.19%     71.97% # Number of insts issued each cycle
system.cpu00.iq.issued_per_cycle::2             60802      7.62%     79.58% # Number of insts issued each cycle
system.cpu00.iq.issued_per_cycle::3             44968      5.63%     85.22% # Number of insts issued each cycle
system.cpu00.iq.issued_per_cycle::4             43229      5.41%     90.63% # Number of insts issued each cycle
system.cpu00.iq.issued_per_cycle::5             28365      3.55%     94.19% # Number of insts issued each cycle
system.cpu00.iq.issued_per_cycle::6             26919      3.37%     97.56% # Number of insts issued each cycle
system.cpu00.iq.issued_per_cycle::7             11624      1.46%     99.01% # Number of insts issued each cycle
system.cpu00.iq.issued_per_cycle::8              7873      0.99%    100.00% # Number of insts issued each cycle
system.cpu00.iq.issued_per_cycle::overflows            0      0.00%    100.00% # Number of insts issued each cycle
system.cpu00.iq.issued_per_cycle::min_value            0                       # Number of insts issued each cycle
system.cpu00.iq.issued_per_cycle::max_value            8                       # Number of insts issued each cycle
system.cpu00.iq.issued_per_cycle::total        798321                       # Number of insts issued each cycle
system.cpu00.iq.fu_full::No_OpClass                 0      0.00%      0.00% # attempts to use FU when none available
system.cpu00.iq.fu_full::IntAlu                  4894     16.13%     16.13% # attempts to use FU when none available
system.cpu00.iq.fu_full::IntMult                 4097     13.50%     29.64% # attempts to use FU when none available
system.cpu00.iq.fu_full::IntDiv                     0      0.00%     29.64% # attempts to use FU when none available
system.cpu00.iq.fu_full::FloatAdd                  63      0.21%     29.84% # attempts to use FU when none available
system.cpu00.iq.fu_full::FloatCmp                   0      0.00%     29.84% # attempts to use FU when none available
system.cpu00.iq.fu_full::FloatCvt                   0      0.00%     29.84% # attempts to use FU when none available
system.cpu00.iq.fu_full::FloatMult               5905     19.46%     49.31% # attempts to use FU when none available
system.cpu00.iq.fu_full::FloatDiv                   0      0.00%     49.31% # attempts to use FU when none available
system.cpu00.iq.fu_full::FloatSqrt                  0      0.00%     49.31% # attempts to use FU when none available
system.cpu00.iq.fu_full::SimdAdd                    0      0.00%     49.31% # attempts to use FU when none available
system.cpu00.iq.fu_full::SimdAddAcc                 0      0.00%     49.31% # attempts to use FU when none available
system.cpu00.iq.fu_full::SimdAlu                    0      0.00%     49.31% # attempts to use FU when none available
system.cpu00.iq.fu_full::SimdCmp                    0      0.00%     49.31% # attempts to use FU when none available
system.cpu00.iq.fu_full::SimdCvt                    0      0.00%     49.31% # attempts to use FU when none available
system.cpu00.iq.fu_full::SimdMisc                   0      0.00%     49.31% # attempts to use FU when none available
system.cpu00.iq.fu_full::SimdMult                   0      0.00%     49.31% # attempts to use FU when none available
system.cpu00.iq.fu_full::SimdMultAcc                0      0.00%     49.31% # attempts to use FU when none available
system.cpu00.iq.fu_full::SimdShift                  0      0.00%     49.31% # attempts to use FU when none available
system.cpu00.iq.fu_full::SimdShiftAcc               0      0.00%     49.31% # attempts to use FU when none available
system.cpu00.iq.fu_full::SimdSqrt                   0      0.00%     49.31% # attempts to use FU when none available
system.cpu00.iq.fu_full::SimdFloatAdd               0      0.00%     49.31% # attempts to use FU when none available
system.cpu00.iq.fu_full::SimdFloatAlu               0      0.00%     49.31% # attempts to use FU when none available
system.cpu00.iq.fu_full::SimdFloatCmp               0      0.00%     49.31% # attempts to use FU when none available
system.cpu00.iq.fu_full::SimdFloatCvt               0      0.00%     49.31% # attempts to use FU when none available
system.cpu00.iq.fu_full::SimdFloatDiv               0      0.00%     49.31% # attempts to use FU when none available
system.cpu00.iq.fu_full::SimdFloatMisc              0      0.00%     49.31% # attempts to use FU when none available
system.cpu00.iq.fu_full::SimdFloatMult              0      0.00%     49.31% # attempts to use FU when none available
system.cpu00.iq.fu_full::SimdFloatMultAcc            0      0.00%     49.31% # attempts to use FU when none available
system.cpu00.iq.fu_full::SimdFloatSqrt              0      0.00%     49.31% # attempts to use FU when none available
system.cpu00.iq.fu_full::MemRead                 9463     31.19%     80.50% # attempts to use FU when none available
system.cpu00.iq.fu_full::MemWrite                5915     19.50%    100.00% # attempts to use FU when none available
system.cpu00.iq.fu_full::IprAccess                  0      0.00%    100.00% # attempts to use FU when none available
system.cpu00.iq.fu_full::InstPrefetch               0      0.00%    100.00% # attempts to use FU when none available
system.cpu00.iq.FU_type_0::No_OpClass               0      0.00%      0.00% # Type of FU issued
system.cpu00.iq.FU_type_0::IntAlu              550814     57.95%     57.95% # Type of FU issued
system.cpu00.iq.FU_type_0::IntMult              12787      1.35%     59.30% # Type of FU issued
system.cpu00.iq.FU_type_0::IntDiv                   0      0.00%     59.30% # Type of FU issued
system.cpu00.iq.FU_type_0::FloatAdd             35722      3.76%     63.06% # Type of FU issued
system.cpu00.iq.FU_type_0::FloatCmp                 8      0.00%     63.06% # Type of FU issued
system.cpu00.iq.FU_type_0::FloatCvt                 0      0.00%     63.06% # Type of FU issued
system.cpu00.iq.FU_type_0::FloatMult            37106      3.90%     66.96% # Type of FU issued
system.cpu00.iq.FU_type_0::FloatDiv                16      0.00%     66.96% # Type of FU issued
system.cpu00.iq.FU_type_0::FloatSqrt                0      0.00%     66.96% # Type of FU issued
system.cpu00.iq.FU_type_0::SimdAdd                  0      0.00%     66.96% # Type of FU issued
system.cpu00.iq.FU_type_0::SimdAddAcc               0      0.00%     66.96% # Type of FU issued
system.cpu00.iq.FU_type_0::SimdAlu                  0      0.00%     66.96% # Type of FU issued
system.cpu00.iq.FU_type_0::SimdCmp                  0      0.00%     66.96% # Type of FU issued
system.cpu00.iq.FU_type_0::SimdCvt                  0      0.00%     66.96% # Type of FU issued
system.cpu00.iq.FU_type_0::SimdMisc                 0      0.00%     66.96% # Type of FU issued
system.cpu00.iq.FU_type_0::SimdMult                 0      0.00%     66.96% # Type of FU issued
system.cpu00.iq.FU_type_0::SimdMultAcc              0      0.00%     66.96% # Type of FU issued
system.cpu00.iq.FU_type_0::SimdShift                0      0.00%     66.96% # Type of FU issued
system.cpu00.iq.FU_type_0::SimdShiftAcc             0      0.00%     66.96% # Type of FU issued
system.cpu00.iq.FU_type_0::SimdSqrt                 0      0.00%     66.96% # Type of FU issued
system.cpu00.iq.FU_type_0::SimdFloatAdd             0      0.00%     66.96% # Type of FU issued
system.cpu00.iq.FU_type_0::SimdFloatAlu             0      0.00%     66.96% # Type of FU issued
system.cpu00.iq.FU_type_0::SimdFloatCmp             0      0.00%     66.96% # Type of FU issued
system.cpu00.iq.FU_type_0::SimdFloatCvt             0      0.00%     66.96% # Type of FU issued
system.cpu00.iq.FU_type_0::SimdFloatDiv             0      0.00%     66.96% # Type of FU issued
system.cpu00.iq.FU_type_0::SimdFloatMisc            0      0.00%     66.96% # Type of FU issued
system.cpu00.iq.FU_type_0::SimdFloatMult            0      0.00%     66.96% # Type of FU issued
system.cpu00.iq.FU_type_0::SimdFloatMultAcc            0      0.00%     66.96% # Type of FU issued
system.cpu00.iq.FU_type_0::SimdFloatSqrt            0      0.00%     66.96% # Type of FU issued
system.cpu00.iq.FU_type_0::MemRead             183868     19.35%     86.31% # Type of FU issued
system.cpu00.iq.FU_type_0::MemWrite            130126     13.69%    100.00% # Type of FU issued
system.cpu00.iq.FU_type_0::IprAccess                0      0.00%    100.00% # Type of FU issued
system.cpu00.iq.FU_type_0::InstPrefetch             0      0.00%    100.00% # Type of FU issued
system.cpu00.iq.FU_type_0::total               950447                       # Type of FU issued
system.cpu00.iq.rate                         0.964109                       # Inst issue rate
system.cpu00.iq.fu_busy_cnt                     30337                       # FU busy when requested
system.cpu00.iq.fu_busy_rate                 0.031919                       # FU busy rate (busy events/executed inst)
system.cpu00.iq.int_inst_queue_reads          2487892                       # Number of integer instruction queue reads
system.cpu00.iq.int_inst_queue_writes          947100                       # Number of integer instruction queue writes
system.cpu00.iq.int_inst_queue_wakeup_accesses       813159                       # Number of integer instruction queue wakeup accesses
system.cpu00.iq.fp_inst_queue_reads            243306                       # Number of floating instruction queue reads
system.cpu00.iq.fp_inst_queue_writes           123248                       # Number of floating instruction queue writes
system.cpu00.iq.fp_inst_queue_wakeup_accesses       116951                       # Number of floating instruction queue wakeup accesses
system.cpu00.iq.int_alu_accesses               855811                       # Number of integer alu accesses
system.cpu00.iq.fp_alu_accesses                124973                       # Number of floating point alu accesses
system.cpu00.iew.lsq.thread0.forwLoads          21095                       # Number of loads that had data forwarded from stores
system.cpu00.iew.lsq.thread0.invAddrLoads            0                       # Number of loads ignored due to an invalid address
system.cpu00.iew.lsq.thread0.squashedLoads        18312                       # Number of loads squashed
system.cpu00.iew.lsq.thread0.ignoredResponses           83                       # Number of memory responses ignored because the instruction is squashed
system.cpu00.iew.lsq.thread0.memOrderViolation          426                       # Number of memory ordering violations
system.cpu00.iew.lsq.thread0.squashedStores        15471                       # Number of stores squashed
system.cpu00.iew.lsq.thread0.invAddrSwpfs            0                       # Number of software prefetches ignored due to an invalid address
system.cpu00.iew.lsq.thread0.blockedLoads            0                       # Number of blocked loads due to partial load-store forwarding
system.cpu00.iew.lsq.thread0.rescheduledLoads          220                       # Number of loads that were rescheduled
system.cpu00.iew.lsq.thread0.cacheBlocked         8926                       # Number of times an access to memory failed due to the cache being blocked
system.cpu00.iew.iewIdleCycles                      0                       # Number of cycles IEW is idle
system.cpu00.iew.iewSquashCycles                 4626                       # Number of cycles IEW is squashing
system.cpu00.iew.iewBlockCycles                 21764                       # Number of cycles IEW is blocking
system.cpu00.iew.iewUnblockCycles               58051                       # Number of cycles IEW is unblocking
system.cpu00.iew.iewDispatchedInsts           1077461                       # Number of instructions dispatched to IQ
system.cpu00.iew.iewDispSquashedInsts            1453                       # Number of squashed instructions skipped by dispatch
system.cpu00.iew.iewDispLoadInsts              179300                       # Number of dispatched load instructions
system.cpu00.iew.iewDispStoreInsts             134997                       # Number of dispatched store instructions
system.cpu00.iew.iewDispNonSpecInsts             1572                       # Number of dispatched non-speculative instructions
system.cpu00.iew.iewIQFullEvents                  108                       # Number of times the IQ has become full, causing a stall
system.cpu00.iew.iewLSQFullEvents               57855                       # Number of times the LSQ has become full, causing a stall
system.cpu00.iew.memOrderViolationEvents          426                       # Number of memory order violations
system.cpu00.iew.predictedTakenIncorrect         1586                       # Number of branches that were predicted taken incorrectly
system.cpu00.iew.predictedNotTakenIncorrect         3124                       # Number of branches that were predicted not taken incorrectly
system.cpu00.iew.branchMispredicts               4710                       # Number of branch mispredicts detected at execute
system.cpu00.iew.iewExecutedInsts              942970                       # Number of executed instructions
system.cpu00.iew.iewExecLoadInsts              180661                       # Number of load instructions executed
system.cpu00.iew.iewExecSquashedInsts            7477                       # Number of squashed instructions skipped in execute
system.cpu00.iew.exec_swp                           0                       # number of swp insts executed
system.cpu00.iew.exec_nop                      107519                       # number of nop insts executed
system.cpu00.iew.exec_refs                     309297                       # number of memory reference insts executed
system.cpu00.iew.exec_branches                 110356                       # Number of branches executed
system.cpu00.iew.exec_stores                   128636                       # Number of stores executed
system.cpu00.iew.exec_rate                   0.956525                       # Inst execution rate
system.cpu00.iew.wb_sent                       933808                       # cumulative count of insts sent to commit
system.cpu00.iew.wb_count                      930110                       # cumulative count of insts written-back
system.cpu00.iew.wb_producers                  545113                       # num instructions producing a value
system.cpu00.iew.wb_consumers                  776343                       # num instructions consuming a value
system.cpu00.iew.wb_rate                     0.943480                       # insts written-back per cycle
system.cpu00.iew.wb_fanout                   0.702155                       # average fanout of values written-back
system.cpu00.commit.commitSquashedInsts        104195                       # The number of squashed insts skipped by commit
system.cpu00.commit.commitNonSpecStalls          2375                       # The number of times commit has been forced to stall to communicate backwards
system.cpu00.commit.branchMispredicts            3946                       # The number of times a branch was mispredicted
system.cpu00.commit.committed_per_cycle::samples       781941                       # Number of insts commited each cycle
system.cpu00.commit.committed_per_cycle::mean     1.238710                       # Number of insts commited each cycle
system.cpu00.commit.committed_per_cycle::stdev     2.325020                       # Number of insts commited each cycle
system.cpu00.commit.committed_per_cycle::underflows            0      0.00%      0.00% # Number of insts commited each cycle
system.cpu00.commit.committed_per_cycle::0       533618     68.24%     68.24% # Number of insts commited each cycle
system.cpu00.commit.committed_per_cycle::1        51303      6.56%     74.80% # Number of insts commited each cycle
system.cpu00.commit.committed_per_cycle::2        51293      6.56%     81.36% # Number of insts commited each cycle
system.cpu00.commit.committed_per_cycle::3        30070      3.85%     85.21% # Number of insts commited each cycle
system.cpu00.commit.committed_per_cycle::4        35800      4.58%     89.79% # Number of insts commited each cycle
system.cpu00.commit.committed_per_cycle::5         8931      1.14%     90.93% # Number of insts commited each cycle
system.cpu00.commit.committed_per_cycle::6        12887      1.65%     92.58% # Number of insts commited each cycle
system.cpu00.commit.committed_per_cycle::7         4990      0.64%     93.22% # Number of insts commited each cycle
system.cpu00.commit.committed_per_cycle::8        53049      6.78%    100.00% # Number of insts commited each cycle
system.cpu00.commit.committed_per_cycle::overflows            0      0.00%    100.00% # Number of insts commited each cycle
system.cpu00.commit.committed_per_cycle::min_value            0                       # Number of insts commited each cycle
system.cpu00.commit.committed_per_cycle::max_value            8                       # Number of insts commited each cycle
system.cpu00.commit.committed_per_cycle::total       781941                       # Number of insts commited each cycle
system.cpu00.commit.committedInsts             968598                       # Number of instructions committed
system.cpu00.commit.committedOps               968598                       # Number of ops (including micro ops) committed
system.cpu00.commit.swp_count                       0                       # Number of s/w prefetches committed
system.cpu00.commit.refs                       280514                       # Number of memory references committed
system.cpu00.commit.loads                      160988                       # Number of loads committed
system.cpu00.commit.membars                      1038                       # Number of memory barriers committed
system.cpu00.commit.branches                   100131                       # Number of branches committed
system.cpu00.commit.fp_insts                   116058                       # Number of committed floating point instructions.
system.cpu00.commit.int_insts                  792082                       # Number of committed integer instructions.
system.cpu00.commit.function_calls              22221                       # Number of function calls committed.
system.cpu00.commit.op_class_0::No_OpClass        98644     10.18%     10.18% # Class of committed instruction
system.cpu00.commit.op_class_0::IntAlu         503275     51.96%     62.14% # Class of committed instruction
system.cpu00.commit.op_class_0::IntMult         12689      1.31%     63.45% # Class of committed instruction
system.cpu00.commit.op_class_0::IntDiv              0      0.00%     63.45% # Class of committed instruction
system.cpu00.commit.op_class_0::FloatAdd        35480      3.66%     67.12% # Class of committed instruction
system.cpu00.commit.op_class_0::FloatCmp            8      0.00%     67.12% # Class of committed instruction
system.cpu00.commit.op_class_0::FloatCvt            0      0.00%     67.12% # Class of committed instruction
system.cpu00.commit.op_class_0::FloatMult        36935      3.81%     70.93% # Class of committed instruction
system.cpu00.commit.op_class_0::FloatDiv           14      0.00%     70.93% # Class of committed instruction
system.cpu00.commit.op_class_0::FloatSqrt            0      0.00%     70.93% # Class of committed instruction
system.cpu00.commit.op_class_0::SimdAdd             0      0.00%     70.93% # Class of committed instruction
system.cpu00.commit.op_class_0::SimdAddAcc            0      0.00%     70.93% # Class of committed instruction
system.cpu00.commit.op_class_0::SimdAlu             0      0.00%     70.93% # Class of committed instruction
system.cpu00.commit.op_class_0::SimdCmp             0      0.00%     70.93% # Class of committed instruction
system.cpu00.commit.op_class_0::SimdCvt             0      0.00%     70.93% # Class of committed instruction
system.cpu00.commit.op_class_0::SimdMisc            0      0.00%     70.93% # Class of committed instruction
system.cpu00.commit.op_class_0::SimdMult            0      0.00%     70.93% # Class of committed instruction
system.cpu00.commit.op_class_0::SimdMultAcc            0      0.00%     70.93% # Class of committed instruction
system.cpu00.commit.op_class_0::SimdShift            0      0.00%     70.93% # Class of committed instruction
system.cpu00.commit.op_class_0::SimdShiftAcc            0      0.00%     70.93% # Class of committed instruction
system.cpu00.commit.op_class_0::SimdSqrt            0      0.00%     70.93% # Class of committed instruction
system.cpu00.commit.op_class_0::SimdFloatAdd            0      0.00%     70.93% # Class of committed instruction
system.cpu00.commit.op_class_0::SimdFloatAlu            0      0.00%     70.93% # Class of committed instruction
system.cpu00.commit.op_class_0::SimdFloatCmp            0      0.00%     70.93% # Class of committed instruction
system.cpu00.commit.op_class_0::SimdFloatCvt            0      0.00%     70.93% # Class of committed instruction
system.cpu00.commit.op_class_0::SimdFloatDiv            0      0.00%     70.93% # Class of committed instruction
system.cpu00.commit.op_class_0::SimdFloatMisc            0      0.00%     70.93% # Class of committed instruction
system.cpu00.commit.op_class_0::SimdFloatMult            0      0.00%     70.93% # Class of committed instruction
system.cpu00.commit.op_class_0::SimdFloatMultAcc            0      0.00%     70.93% # Class of committed instruction
system.cpu00.commit.op_class_0::SimdFloatSqrt            0      0.00%     70.93% # Class of committed instruction
system.cpu00.commit.op_class_0::MemRead        162026     16.73%     87.66% # Class of committed instruction
system.cpu00.commit.op_class_0::MemWrite       119527     12.34%    100.00% # Class of committed instruction
system.cpu00.commit.op_class_0::IprAccess            0      0.00%    100.00% # Class of committed instruction
system.cpu00.commit.op_class_0::InstPrefetch            0      0.00%    100.00% # Class of committed instruction
system.cpu00.commit.op_class_0::total          968598                       # Class of committed instruction
system.cpu00.commit.bw_lim_events               53049                       # number cycles where commit BW limit reached
system.cpu00.rob.rob_reads                    1797694                       # The number of ROB reads
system.cpu00.rob.rob_writes                   2162087                       # The number of ROB writes
system.cpu00.timesIdled                          1405                       # Number of times that the entire CPU went into an idle state and unscheduled itself
system.cpu00.idleCycles                        187508                       # Total number of cycles that the CPU has spent unscheduled due to idling
system.cpu00.quiesceCycles                      76971                       # Total number of cycles that CPU has spent quiesced or waiting for an interrupt
system.cpu00.committedInsts                    869954                       # Number of Instructions Simulated
system.cpu00.committedOps                      869954                       # Number of Ops (including micro ops) Simulated
system.cpu00.cpi                             1.133197                       # CPI: Cycles Per Instruction
system.cpu00.cpi_total                       1.133197                       # CPI: Total CPI of All Threads
system.cpu00.ipc                             0.882459                       # IPC: Instructions Per Cycle
system.cpu00.ipc_total                       0.882459                       # IPC: Total IPC of All Threads
system.cpu00.int_regfile_reads                1138919                       # number of integer regfile reads
system.cpu00.int_regfile_writes                612524                       # number of integer regfile writes
system.cpu00.fp_regfile_reads                  151787                       # number of floating regfile reads
system.cpu00.fp_regfile_writes                 102903                       # number of floating regfile writes
system.cpu00.misc_regfile_reads                  5093                       # number of misc regfile reads
system.cpu00.misc_regfile_writes                 2252                       # number of misc regfile writes
system.cpu00.dcache.tags.replacements           11260                       # number of replacements
system.cpu00.dcache.tags.tagsinuse         124.750526                       # Cycle average of tags in use
system.cpu00.dcache.tags.total_refs            229912                       # Total number of references to valid blocks.
system.cpu00.dcache.tags.sampled_refs           11388                       # Sample count of references to valid blocks.
system.cpu00.dcache.tags.avg_refs           20.188971                       # Average number of references to valid blocks.
system.cpu00.dcache.tags.warmup_cycle        87205788                       # Cycle when the warmup percentage was hit.
system.cpu00.dcache.tags.occ_blocks::cpu00.data   124.750526                       # Average occupied blocks per requestor
system.cpu00.dcache.tags.occ_percent::cpu00.data     0.974613                       # Average percentage of cache occupancy
system.cpu00.dcache.tags.occ_percent::total     0.974613                       # Average percentage of cache occupancy
system.cpu00.dcache.tags.occ_task_id_blocks::1024          128                       # Occupied blocks per task id
system.cpu00.dcache.tags.age_task_id_blocks_1024::0           57                       # Occupied blocks per task id
system.cpu00.dcache.tags.age_task_id_blocks_1024::1           62                       # Occupied blocks per task id
system.cpu00.dcache.tags.age_task_id_blocks_1024::2            9                       # Occupied blocks per task id
system.cpu00.dcache.tags.occ_task_id_percent::1024            1                       # Percentage of cache occupancy per task id
system.cpu00.dcache.tags.tag_accesses         1096614                       # Number of tag accesses
system.cpu00.dcache.tags.data_accesses        1096614                       # Number of data accesses
system.cpu00.dcache.ReadReq_hits::cpu00.data       142267                       # number of ReadReq hits
system.cpu00.dcache.ReadReq_hits::total        142267                       # number of ReadReq hits
system.cpu00.dcache.WriteReq_hits::cpu00.data        85425                       # number of WriteReq hits
system.cpu00.dcache.WriteReq_hits::total        85425                       # number of WriteReq hits
system.cpu00.dcache.LoadLockedReq_hits::cpu00.data          955                       # number of LoadLockedReq hits
system.cpu00.dcache.LoadLockedReq_hits::total          955                       # number of LoadLockedReq hits
system.cpu00.dcache.StoreCondReq_hits::cpu00.data         1101                       # number of StoreCondReq hits
system.cpu00.dcache.StoreCondReq_hits::total         1101                       # number of StoreCondReq hits
system.cpu00.dcache.demand_hits::cpu00.data       227692                       # number of demand (read+write) hits
system.cpu00.dcache.demand_hits::total         227692                       # number of demand (read+write) hits
system.cpu00.dcache.overall_hits::cpu00.data       227692                       # number of overall hits
system.cpu00.dcache.overall_hits::total        227692                       # number of overall hits
system.cpu00.dcache.ReadReq_misses::cpu00.data         8249                       # number of ReadReq misses
system.cpu00.dcache.ReadReq_misses::total         8249                       # number of ReadReq misses
system.cpu00.dcache.WriteReq_misses::cpu00.data        32978                       # number of WriteReq misses
system.cpu00.dcache.WriteReq_misses::total        32978                       # number of WriteReq misses
system.cpu00.dcache.LoadLockedReq_misses::cpu00.data          237                       # number of LoadLockedReq misses
system.cpu00.dcache.LoadLockedReq_misses::total          237                       # number of LoadLockedReq misses
system.cpu00.dcache.StoreCondReq_misses::cpu00.data           22                       # number of StoreCondReq misses
system.cpu00.dcache.StoreCondReq_misses::total           22                       # number of StoreCondReq misses
system.cpu00.dcache.demand_misses::cpu00.data        41227                       # number of demand (read+write) misses
system.cpu00.dcache.demand_misses::total        41227                       # number of demand (read+write) misses
system.cpu00.dcache.overall_misses::cpu00.data        41227                       # number of overall misses
system.cpu00.dcache.overall_misses::total        41227                       # number of overall misses
system.cpu00.dcache.ReadReq_miss_latency::cpu00.data    414117576                       # number of ReadReq miss cycles
system.cpu00.dcache.ReadReq_miss_latency::total    414117576                       # number of ReadReq miss cycles
system.cpu00.dcache.WriteReq_miss_latency::cpu00.data   5493142046                       # number of WriteReq miss cycles
system.cpu00.dcache.WriteReq_miss_latency::total   5493142046                       # number of WriteReq miss cycles
system.cpu00.dcache.LoadLockedReq_miss_latency::cpu00.data      2659122                       # number of LoadLockedReq miss cycles
system.cpu00.dcache.LoadLockedReq_miss_latency::total      2659122                       # number of LoadLockedReq miss cycles
system.cpu00.dcache.StoreCondReq_miss_latency::cpu00.data       341550                       # number of StoreCondReq miss cycles
system.cpu00.dcache.StoreCondReq_miss_latency::total       341550                       # number of StoreCondReq miss cycles
system.cpu00.dcache.demand_miss_latency::cpu00.data   5907259622                       # number of demand (read+write) miss cycles
system.cpu00.dcache.demand_miss_latency::total   5907259622                       # number of demand (read+write) miss cycles
system.cpu00.dcache.overall_miss_latency::cpu00.data   5907259622                       # number of overall miss cycles
system.cpu00.dcache.overall_miss_latency::total   5907259622                       # number of overall miss cycles
system.cpu00.dcache.ReadReq_accesses::cpu00.data       150516                       # number of ReadReq accesses(hits+misses)
system.cpu00.dcache.ReadReq_accesses::total       150516                       # number of ReadReq accesses(hits+misses)
system.cpu00.dcache.WriteReq_accesses::cpu00.data       118403                       # number of WriteReq accesses(hits+misses)
system.cpu00.dcache.WriteReq_accesses::total       118403                       # number of WriteReq accesses(hits+misses)
system.cpu00.dcache.LoadLockedReq_accesses::cpu00.data         1192                       # number of LoadLockedReq accesses(hits+misses)
system.cpu00.dcache.LoadLockedReq_accesses::total         1192                       # number of LoadLockedReq accesses(hits+misses)
system.cpu00.dcache.StoreCondReq_accesses::cpu00.data         1123                       # number of StoreCondReq accesses(hits+misses)
system.cpu00.dcache.StoreCondReq_accesses::total         1123                       # number of StoreCondReq accesses(hits+misses)
system.cpu00.dcache.demand_accesses::cpu00.data       268919                       # number of demand (read+write) accesses
system.cpu00.dcache.demand_accesses::total       268919                       # number of demand (read+write) accesses
system.cpu00.dcache.overall_accesses::cpu00.data       268919                       # number of overall (read+write) accesses
system.cpu00.dcache.overall_accesses::total       268919                       # number of overall (read+write) accesses
system.cpu00.dcache.ReadReq_miss_rate::cpu00.data     0.054805                       # miss rate for ReadReq accesses
system.cpu00.dcache.ReadReq_miss_rate::total     0.054805                       # miss rate for ReadReq accesses
system.cpu00.dcache.WriteReq_miss_rate::cpu00.data     0.278523                       # miss rate for WriteReq accesses
system.cpu00.dcache.WriteReq_miss_rate::total     0.278523                       # miss rate for WriteReq accesses
system.cpu00.dcache.LoadLockedReq_miss_rate::cpu00.data     0.198826                       # miss rate for LoadLockedReq accesses
system.cpu00.dcache.LoadLockedReq_miss_rate::total     0.198826                       # miss rate for LoadLockedReq accesses
system.cpu00.dcache.StoreCondReq_miss_rate::cpu00.data     0.019590                       # miss rate for StoreCondReq accesses
system.cpu00.dcache.StoreCondReq_miss_rate::total     0.019590                       # miss rate for StoreCondReq accesses
system.cpu00.dcache.demand_miss_rate::cpu00.data     0.153306                       # miss rate for demand accesses
system.cpu00.dcache.demand_miss_rate::total     0.153306                       # miss rate for demand accesses
system.cpu00.dcache.overall_miss_rate::cpu00.data     0.153306                       # miss rate for overall accesses
system.cpu00.dcache.overall_miss_rate::total     0.153306                       # miss rate for overall accesses
system.cpu00.dcache.ReadReq_avg_miss_latency::cpu00.data 50202.154928                       # average ReadReq miss latency
system.cpu00.dcache.ReadReq_avg_miss_latency::total 50202.154928                       # average ReadReq miss latency
system.cpu00.dcache.WriteReq_avg_miss_latency::cpu00.data 166569.896476                       # average WriteReq miss latency
system.cpu00.dcache.WriteReq_avg_miss_latency::total 166569.896476                       # average WriteReq miss latency
system.cpu00.dcache.LoadLockedReq_avg_miss_latency::cpu00.data 11219.924051                       # average LoadLockedReq miss latency
system.cpu00.dcache.LoadLockedReq_avg_miss_latency::total 11219.924051                       # average LoadLockedReq miss latency
system.cpu00.dcache.StoreCondReq_avg_miss_latency::cpu00.data        15525                       # average StoreCondReq miss latency
system.cpu00.dcache.StoreCondReq_avg_miss_latency::total        15525                       # average StoreCondReq miss latency
system.cpu00.dcache.demand_avg_miss_latency::cpu00.data 143286.186771                       # average overall miss latency
system.cpu00.dcache.demand_avg_miss_latency::total 143286.186771                       # average overall miss latency
system.cpu00.dcache.overall_avg_miss_latency::cpu00.data 143286.186771                       # average overall miss latency
system.cpu00.dcache.overall_avg_miss_latency::total 143286.186771                       # average overall miss latency
system.cpu00.dcache.blocked_cycles::no_mshrs       150143                       # number of cycles access was blocked
system.cpu00.dcache.blocked_cycles::no_targets            0                       # number of cycles access was blocked
system.cpu00.dcache.blocked::no_mshrs            2717                       # number of cycles access was blocked
system.cpu00.dcache.blocked::no_targets             0                       # number of cycles access was blocked
system.cpu00.dcache.avg_blocked_cycles::no_mshrs    55.260582                       # average number of cycles each access was blocked
system.cpu00.dcache.avg_blocked_cycles::no_targets          nan                       # average number of cycles each access was blocked
system.cpu00.dcache.fast_writes                     0                       # number of fast writes performed
system.cpu00.dcache.cache_copies                    0                       # number of cache copies performed
system.cpu00.dcache.writebacks::writebacks         8392                       # number of writebacks
system.cpu00.dcache.writebacks::total            8392                       # number of writebacks
system.cpu00.dcache.ReadReq_mshr_hits::cpu00.data         2868                       # number of ReadReq MSHR hits
system.cpu00.dcache.ReadReq_mshr_hits::total         2868                       # number of ReadReq MSHR hits
system.cpu00.dcache.WriteReq_mshr_hits::cpu00.data        26694                       # number of WriteReq MSHR hits
system.cpu00.dcache.WriteReq_mshr_hits::total        26694                       # number of WriteReq MSHR hits
system.cpu00.dcache.LoadLockedReq_mshr_hits::cpu00.data          129                       # number of LoadLockedReq MSHR hits
system.cpu00.dcache.LoadLockedReq_mshr_hits::total          129                       # number of LoadLockedReq MSHR hits
system.cpu00.dcache.demand_mshr_hits::cpu00.data        29562                       # number of demand (read+write) MSHR hits
system.cpu00.dcache.demand_mshr_hits::total        29562                       # number of demand (read+write) MSHR hits
system.cpu00.dcache.overall_mshr_hits::cpu00.data        29562                       # number of overall MSHR hits
system.cpu00.dcache.overall_mshr_hits::total        29562                       # number of overall MSHR hits
system.cpu00.dcache.ReadReq_mshr_misses::cpu00.data         5381                       # number of ReadReq MSHR misses
system.cpu00.dcache.ReadReq_mshr_misses::total         5381                       # number of ReadReq MSHR misses
system.cpu00.dcache.WriteReq_mshr_misses::cpu00.data         6284                       # number of WriteReq MSHR misses
system.cpu00.dcache.WriteReq_mshr_misses::total         6284                       # number of WriteReq MSHR misses
system.cpu00.dcache.LoadLockedReq_mshr_misses::cpu00.data          108                       # number of LoadLockedReq MSHR misses
system.cpu00.dcache.LoadLockedReq_mshr_misses::total          108                       # number of LoadLockedReq MSHR misses
system.cpu00.dcache.StoreCondReq_mshr_misses::cpu00.data           22                       # number of StoreCondReq MSHR misses
system.cpu00.dcache.StoreCondReq_mshr_misses::total           22                       # number of StoreCondReq MSHR misses
system.cpu00.dcache.demand_mshr_misses::cpu00.data        11665                       # number of demand (read+write) MSHR misses
system.cpu00.dcache.demand_mshr_misses::total        11665                       # number of demand (read+write) MSHR misses
system.cpu00.dcache.overall_mshr_misses::cpu00.data        11665                       # number of overall MSHR misses
system.cpu00.dcache.overall_mshr_misses::total        11665                       # number of overall MSHR misses
system.cpu00.dcache.ReadReq_mshr_miss_latency::cpu00.data    240367986                       # number of ReadReq MSHR miss cycles
system.cpu00.dcache.ReadReq_mshr_miss_latency::total    240367986                       # number of ReadReq MSHR miss cycles
system.cpu00.dcache.WriteReq_mshr_miss_latency::cpu00.data   1162939111                       # number of WriteReq MSHR miss cycles
system.cpu00.dcache.WriteReq_mshr_miss_latency::total   1162939111                       # number of WriteReq MSHR miss cycles
system.cpu00.dcache.LoadLockedReq_mshr_miss_latency::cpu00.data       973728                       # number of LoadLockedReq MSHR miss cycles
system.cpu00.dcache.LoadLockedReq_mshr_miss_latency::total       973728                       # number of LoadLockedReq MSHR miss cycles
system.cpu00.dcache.StoreCondReq_mshr_miss_latency::cpu00.data       314226                       # number of StoreCondReq MSHR miss cycles
system.cpu00.dcache.StoreCondReq_mshr_miss_latency::total       314226                       # number of StoreCondReq MSHR miss cycles
system.cpu00.dcache.demand_mshr_miss_latency::cpu00.data   1403307097                       # number of demand (read+write) MSHR miss cycles
system.cpu00.dcache.demand_mshr_miss_latency::total   1403307097                       # number of demand (read+write) MSHR miss cycles
system.cpu00.dcache.overall_mshr_miss_latency::cpu00.data   1403307097                       # number of overall MSHR miss cycles
system.cpu00.dcache.overall_mshr_miss_latency::total   1403307097                       # number of overall MSHR miss cycles
system.cpu00.dcache.ReadReq_mshr_miss_rate::cpu00.data     0.035750                       # mshr miss rate for ReadReq accesses
system.cpu00.dcache.ReadReq_mshr_miss_rate::total     0.035750                       # mshr miss rate for ReadReq accesses
system.cpu00.dcache.WriteReq_mshr_miss_rate::cpu00.data     0.053073                       # mshr miss rate for WriteReq accesses
system.cpu00.dcache.WriteReq_mshr_miss_rate::total     0.053073                       # mshr miss rate for WriteReq accesses
system.cpu00.dcache.LoadLockedReq_mshr_miss_rate::cpu00.data     0.090604                       # mshr miss rate for LoadLockedReq accesses
system.cpu00.dcache.LoadLockedReq_mshr_miss_rate::total     0.090604                       # mshr miss rate for LoadLockedReq accesses
system.cpu00.dcache.StoreCondReq_mshr_miss_rate::cpu00.data     0.019590                       # mshr miss rate for StoreCondReq accesses
system.cpu00.dcache.StoreCondReq_mshr_miss_rate::total     0.019590                       # mshr miss rate for StoreCondReq accesses
system.cpu00.dcache.demand_mshr_miss_rate::cpu00.data     0.043377                       # mshr miss rate for demand accesses
system.cpu00.dcache.demand_mshr_miss_rate::total     0.043377                       # mshr miss rate for demand accesses
system.cpu00.dcache.overall_mshr_miss_rate::cpu00.data     0.043377                       # mshr miss rate for overall accesses
system.cpu00.dcache.overall_mshr_miss_rate::total     0.043377                       # mshr miss rate for overall accesses
system.cpu00.dcache.ReadReq_avg_mshr_miss_latency::cpu00.data 44669.761383                       # average ReadReq mshr miss latency
system.cpu00.dcache.ReadReq_avg_mshr_miss_latency::total 44669.761383                       # average ReadReq mshr miss latency
system.cpu00.dcache.WriteReq_avg_mshr_miss_latency::cpu00.data 185063.512253                       # average WriteReq mshr miss latency
system.cpu00.dcache.WriteReq_avg_mshr_miss_latency::total 185063.512253                       # average WriteReq mshr miss latency
system.cpu00.dcache.LoadLockedReq_avg_mshr_miss_latency::cpu00.data         9016                       # average LoadLockedReq mshr miss latency
system.cpu00.dcache.LoadLockedReq_avg_mshr_miss_latency::total         9016                       # average LoadLockedReq mshr miss latency
system.cpu00.dcache.StoreCondReq_avg_mshr_miss_latency::cpu00.data        14283                       # average StoreCondReq mshr miss latency
system.cpu00.dcache.StoreCondReq_avg_mshr_miss_latency::total        14283                       # average StoreCondReq mshr miss latency
system.cpu00.dcache.demand_avg_mshr_miss_latency::cpu00.data 120300.651264                       # average overall mshr miss latency
system.cpu00.dcache.demand_avg_mshr_miss_latency::total 120300.651264                       # average overall mshr miss latency
[...]
system.tol2bus.pkt_count_system.cpu06.dcache.mem_side::system.l2.cpu_side         1134                       # Packet count per connected master and slave (bytes)
system.tol2bus.pkt_count_system.cpu07.icache.mem_side::system.l2.cpu_side         2542                       # Packet count per connected master and slave (bytes)
system.tol2bus.pkt_count_system.cpu07.dcache.mem_side::system.l2.cpu_side         2548                       # Packet count per connected master and slave (bytes)
system.tol2bus.pkt_count_system.cpu08.icache.mem_side::system.l2.cpu_side         2767                       # Packet count per connected master and slave (bytes)
system.tol2bus.pkt_count_system.cpu08.dcache.mem_side::system.l2.cpu_side         2699                       # Packet count per connected master and slave (bytes)
system.tol2bus.pkt_count_system.cpu09.icache.mem_side::system.l2.cpu_side         1104                       # Packet count per connected master and slave (bytes)
system.tol2bus.pkt_count_system.cpu09.dcache.mem_side::system.l2.cpu_side         1139                       # Packet count per connected master and slave (bytes)
system.tol2bus.pkt_count_system.cpu10.icache.mem_side::system.l2.cpu_side         1136                       # Packet count per connected master and slave (bytes)
system.tol2bus.pkt_count_system.cpu10.dcache.mem_side::system.l2.cpu_side         1076                       # Packet count per connected master and slave (bytes)
system.tol2bus.pkt_count_system.cpu11.icache.mem_side::system.l2.cpu_side         1229                       # Packet count per connected master and slave (bytes)
system.tol2bus.pkt_count_system.cpu11.dcache.mem_side::system.l2.cpu_side         1086                       # Packet count per connected master and slave (bytes)
system.tol2bus.pkt_count_system.cpu12.icache.mem_side::system.l2.cpu_side         2705                       # Packet count per connected master and slave (bytes)
system.tol2bus.pkt_count_system.cpu12.dcache.mem_side::system.l2.cpu_side         2627                       # Packet count per connected master and slave (bytes)
system.tol2bus.pkt_count_system.cpu13.icache.mem_side::system.l2.cpu_side         3439                       # Packet count per connected master and slave (bytes)
system.tol2bus.pkt_count_system.cpu13.dcache.mem_side::system.l2.cpu_side         3358                       # Packet count per connected master and slave (bytes)
system.tol2bus.pkt_count_system.cpu14.icache.mem_side::system.l2.cpu_side         3274                       # Packet count per connected master and slave (bytes)
system.tol2bus.pkt_count_system.cpu14.dcache.mem_side::system.l2.cpu_side         3044                       # Packet count per connected master and slave (bytes)
system.tol2bus.pkt_count_system.cpu15.icache.mem_side::system.l2.cpu_side         3041                       # Packet count per connected master and slave (bytes)
system.tol2bus.pkt_count_system.cpu15.dcache.mem_side::system.l2.cpu_side         3335                       # Packet count per connected master and slave (bytes)
system.tol2bus.pkt_count::total                120594                       # Packet count per connected master and slave (bytes)
system.tol2bus.pkt_size_system.cpu00.icache.mem_side::system.l2.cpu_side       967936                       # Cumulative packet size per connected master and slave (bytes)
system.tol2bus.pkt_size_system.cpu00.dcache.mem_side::system.l2.cpu_side      1267904                       # Cumulative packet size per connected master and slave (bytes)
system.tol2bus.pkt_size_system.cpu01.icache.mem_side::system.l2.cpu_side       118016                       # Cumulative packet size per connected master and slave (bytes)
system.tol2bus.pkt_size_system.cpu01.dcache.mem_side::system.l2.cpu_side        50752                       # Cumulative packet size per connected master and slave (bytes)
system.tol2bus.pkt_size_system.cpu02.icache.mem_side::system.l2.cpu_side        61760                       # Cumulative packet size per connected master and slave (bytes)
system.tol2bus.pkt_size_system.cpu02.dcache.mem_side::system.l2.cpu_side        35520                       # Cumulative packet size per connected master and slave (bytes)
system.tol2bus.pkt_size_system.cpu03.icache.mem_side::system.l2.cpu_side        36352                       # Cumulative packet size per connected master and slave (bytes)
system.tol2bus.pkt_size_system.cpu03.dcache.mem_side::system.l2.cpu_side        28864                       # Cumulative packet size per connected master and slave (bytes)
system.tol2bus.pkt_size_system.cpu04.icache.mem_side::system.l2.cpu_side        31296                       # Cumulative packet size per connected master and slave (bytes)
system.tol2bus.pkt_size_system.cpu04.dcache.mem_side::system.l2.cpu_side        31360                       # Cumulative packet size per connected master and slave (bytes)
system.tol2bus.pkt_size_system.cpu05.icache.mem_side::system.l2.cpu_side        89408                       # Cumulative packet size per connected master and slave (bytes)
system.tol2bus.pkt_size_system.cpu05.dcache.mem_side::system.l2.cpu_side        42112                       # Cumulative packet size per connected master and slave (bytes)
system.tol2bus.pkt_size_system.cpu06.icache.mem_side::system.l2.cpu_side        35200                       # Cumulative packet size per connected master and slave (bytes)
system.tol2bus.pkt_size_system.cpu06.dcache.mem_side::system.l2.cpu_side        32320                       # Cumulative packet size per connected master and slave (bytes)
system.tol2bus.pkt_size_system.cpu07.icache.mem_side::system.l2.cpu_side        98176                       # Cumulative packet size per connected master and slave (bytes)
system.tol2bus.pkt_size_system.cpu07.dcache.mem_side::system.l2.cpu_side        48448                       # Cumulative packet size per connected master and slave (bytes)
system.tol2bus.pkt_size_system.cpu08.icache.mem_side::system.l2.cpu_side       107648                       # Cumulative packet size per connected master and slave (bytes)
system.tol2bus.pkt_size_system.cpu08.dcache.mem_side::system.l2.cpu_side        44736                       # Cumulative packet size per connected master and slave (bytes)
system.tol2bus.pkt_size_system.cpu09.icache.mem_side::system.l2.cpu_side        38592                       # Cumulative packet size per connected master and slave (bytes)
system.tol2bus.pkt_size_system.cpu09.dcache.mem_side::system.l2.cpu_side        30400                       # Cumulative packet size per connected master and slave (bytes)
system.tol2bus.pkt_size_system.cpu10.icache.mem_side::system.l2.cpu_side        39808                       # Cumulative packet size per connected master and slave (bytes)
system.tol2bus.pkt_size_system.cpu10.dcache.mem_side::system.l2.cpu_side        29504                       # Cumulative packet size per connected master and slave (bytes)
system.tol2bus.pkt_size_system.cpu11.icache.mem_side::system.l2.cpu_side        43264                       # Cumulative packet size per connected master and slave (bytes)
system.tol2bus.pkt_size_system.cpu11.dcache.mem_side::system.l2.cpu_side        28736                       # Cumulative packet size per connected master and slave (bytes)
system.tol2bus.pkt_size_system.cpu12.icache.mem_side::system.l2.cpu_side       105152                       # Cumulative packet size per connected master and slave (bytes)
system.tol2bus.pkt_size_system.cpu12.dcache.mem_side::system.l2.cpu_side        48064                       # Cumulative packet size per connected master and slave (bytes)
system.tol2bus.pkt_size_system.cpu13.icache.mem_side::system.l2.cpu_side       136384                       # Cumulative packet size per connected master and slave (bytes)
system.tol2bus.pkt_size_system.cpu13.dcache.mem_side::system.l2.cpu_side        49216                       # Cumulative packet size per connected master and slave (bytes)
system.tol2bus.pkt_size_system.cpu14.icache.mem_side::system.l2.cpu_side       129088                       # Cumulative packet size per connected master and slave (bytes)
system.tol2bus.pkt_size_system.cpu14.dcache.mem_side::system.l2.cpu_side        46464                       # Cumulative packet size per connected master and slave (bytes)
system.tol2bus.pkt_size_system.cpu15.icache.mem_side::system.l2.cpu_side       119424                       # Cumulative packet size per connected master and slave (bytes)
system.tol2bus.pkt_size_system.cpu15.dcache.mem_side::system.l2.cpu_side        48576                       # Cumulative packet size per connected master and slave (bytes)
system.tol2bus.pkt_size::total                4020480                       # Cumulative packet size per connected master and slave (bytes)
system.tol2bus.snoops                            9159                       # Total snoops (count)
system.tol2bus.snoop_fanout::samples            48517                       # Request fanout histogram
system.tol2bus.snoop_fanout::mean            2.442216                       # Request fanout histogram
system.tol2bus.snoop_fanout::stdev           3.863555                       # Request fanout histogram
system.tol2bus.snoop_fanout::underflows             0      0.00%      0.00% # Request fanout histogram
system.tol2bus.snoop_fanout::0                  23237     47.89%     47.89% # Request fanout histogram
system.tol2bus.snoop_fanout::1                   9183     18.93%     66.82% # Request fanout histogram
system.tol2bus.snoop_fanout::2                   3021      6.23%     73.05% # Request fanout histogram
system.tol2bus.snoop_fanout::3                   1790      3.69%     76.74% # Request fanout histogram
system.tol2bus.snoop_fanout::4                   1334      2.75%     79.49% # Request fanout histogram
system.tol2bus.snoop_fanout::5                   1206      2.49%     81.97% # Request fanout histogram
system.tol2bus.snoop_fanout::6                   1180      2.43%     84.41% # Request fanout histogram
system.tol2bus.snoop_fanout::7                   1116      2.30%     86.71% # Request fanout histogram
system.tol2bus.snoop_fanout::8                    998      2.06%     88.76% # Request fanout histogram
system.tol2bus.snoop_fanout::9                    973      2.01%     90.77% # Request fanout histogram
system.tol2bus.snoop_fanout::10                   841      1.73%     92.50% # Request fanout histogram
system.tol2bus.snoop_fanout::11                   885      1.82%     94.33% # Request fanout histogram
system.tol2bus.snoop_fanout::12                   761      1.57%     95.89% # Request fanout histogram
system.tol2bus.snoop_fanout::13                   743      1.53%     97.43% # Request fanout histogram
system.tol2bus.snoop_fanout::14                   776      1.60%     99.03% # Request fanout histogram
system.tol2bus.snoop_fanout::15                   473      0.97%    100.00% # Request fanout histogram
system.tol2bus.snoop_fanout::16                     0      0.00%    100.00% # Request fanout histogram
system.tol2bus.snoop_fanout::17                     0      0.00%    100.00% # Request fanout histogram
system.tol2bus.snoop_fanout::18                     0      0.00%    100.00% # Request fanout histogram
system.tol2bus.snoop_fanout::19                     0      0.00%    100.00% # Request fanout histogram
system.tol2bus.snoop_fanout::20                     0      0.00%    100.00% # Request fanout histogram
system.tol2bus.snoop_fanout::21                     0      0.00%    100.00% # Request fanout histogram
system.tol2bus.snoop_fanout::22                     0      0.00%    100.00% # Request fanout histogram
system.tol2bus.snoop_fanout::23                     0      0.00%    100.00% # Request fanout histogram
system.tol2bus.snoop_fanout::24                     0      0.00%    100.00% # Request fanout histogram
system.tol2bus.snoop_fanout::25                     0      0.00%    100.00% # Request fanout histogram
system.tol2bus.snoop_fanout::26                     0      0.00%    100.00% # Request fanout histogram
system.tol2bus.snoop_fanout::27                     0      0.00%    100.00% # Request fanout histogram
system.tol2bus.snoop_fanout::28                     0      0.00%    100.00% # Request fanout histogram
system.tol2bus.snoop_fanout::29                     0      0.00%    100.00% # Request fanout histogram
system.tol2bus.snoop_fanout::30                     0      0.00%    100.00% # Request fanout histogram
system.tol2bus.snoop_fanout::31                     0      0.00%    100.00% # Request fanout histogram
system.tol2bus.snoop_fanout::32                     0      0.00%    100.00% # Request fanout histogram
system.tol2bus.snoop_fanout::overflows              0      0.00%    100.00% # Request fanout histogram
system.tol2bus.snoop_fanout::min_value              0                       # Request fanout histogram
system.tol2bus.snoop_fanout::max_value             15                       # Request fanout histogram
system.tol2bus.snoop_fanout::total              48517                       # Request fanout histogram
system.tol2bus.reqLayer0.occupancy          162809047                       # Layer occupancy (ticks)
system.tol2bus.reqLayer0.utilization             12.3                       # Layer utilization (%)
system.tol2bus.respLayer0.occupancy          29505557                       # Layer occupancy (ticks)
system.tol2bus.respLayer0.utilization             2.2                       # Layer utilization (%)
system.tol2bus.respLayer1.occupancy          43933775                       # Layer occupancy (ticks)
system.tol2bus.respLayer1.utilization             3.3                       # Layer utilization (%)
system.tol2bus.respLayer2.occupancy           4373789                       # Layer occupancy (ticks)
system.tol2bus.respLayer2.utilization             0.3                       # Layer utilization (%)
system.tol2bus.respLayer3.occupancy           6283625                       # Layer occupancy (ticks)
system.tol2bus.respLayer3.utilization             0.5                       # Layer utilization (%)
system.tol2bus.respLayer4.occupancy           2743244                       # Layer occupancy (ticks)
system.tol2bus.respLayer4.utilization             0.2                       # Layer utilization (%)
system.tol2bus.respLayer5.occupancy           2519132                       # Layer occupancy (ticks)
system.tol2bus.respLayer5.utilization             0.2                       # Layer utilization (%)
system.tol2bus.respLayer6.occupancy           1863650                       # Layer occupancy (ticks)
system.tol2bus.respLayer6.utilization             0.1                       # Layer utilization (%)
system.tol2bus.respLayer7.occupancy           1767325                       # Layer occupancy (ticks)
system.tol2bus.respLayer7.utilization             0.1                       # Layer utilization (%)
system.tol2bus.respLayer8.occupancy           1683096                       # Layer occupancy (ticks)
system.tol2bus.respLayer8.utilization             0.1                       # Layer utilization (%)
system.tol2bus.respLayer9.occupancy           1730051                       # Layer occupancy (ticks)
system.tol2bus.respLayer9.utilization             0.1                       # Layer utilization (%)
system.tol2bus.respLayer10.occupancy          3584077                       # Layer occupancy (ticks)
system.tol2bus.respLayer10.utilization            0.3                       # Layer utilization (%)
system.tol2bus.respLayer11.occupancy          4092311                       # Layer occupancy (ticks)
system.tol2bus.respLayer11.utilization            0.3                       # Layer utilization (%)
system.tol2bus.respLayer12.occupancy          1827327                       # Layer occupancy (ticks)
system.tol2bus.respLayer12.utilization            0.1                       # Layer utilization (%)
system.tol2bus.respLayer13.occupancy          1830660                       # Layer occupancy (ticks)
system.tol2bus.respLayer13.utilization            0.1                       # Layer utilization (%)
system.tol2bus.respLayer14.occupancy          3820156                       # Layer occupancy (ticks)
system.tol2bus.respLayer14.utilization            0.3                       # Layer utilization (%)
system.tol2bus.respLayer15.occupancy          4391634                       # Layer occupancy (ticks)
system.tol2bus.respLayer15.utilization            0.3                       # Layer utilization (%)
system.tol2bus.respLayer16.occupancy          4126772                       # Layer occupancy (ticks)
system.tol2bus.respLayer16.utilization            0.3                       # Layer utilization (%)
system.tol2bus.respLayer17.occupancy          4948395                       # Layer occupancy (ticks)
system.tol2bus.respLayer17.utilization            0.4                       # Layer utilization (%)
system.tol2bus.respLayer18.occupancy          1931770                       # Layer occupancy (ticks)
system.tol2bus.respLayer18.utilization            0.1                       # Layer utilization (%)
system.tol2bus.respLayer19.occupancy          1874130                       # Layer occupancy (ticks)
system.tol2bus.respLayer19.utilization            0.1                       # Layer utilization (%)
system.tol2bus.respLayer20.occupancy          1974515                       # Layer occupancy (ticks)
system.tol2bus.respLayer20.utilization            0.1                       # Layer utilization (%)
system.tol2bus.respLayer21.occupancy          1752403                       # Layer occupancy (ticks)
system.tol2bus.respLayer21.utilization            0.1                       # Layer utilization (%)
system.tol2bus.respLayer22.occupancy          2153145                       # Layer occupancy (ticks)
system.tol2bus.respLayer22.utilization            0.2                       # Layer utilization (%)
system.tol2bus.respLayer23.occupancy          1764705                       # Layer occupancy (ticks)
system.tol2bus.respLayer23.utilization            0.1                       # Layer utilization (%)
system.tol2bus.respLayer24.occupancy          4018803                       # Layer occupancy (ticks)
system.tol2bus.respLayer24.utilization            0.3                       # Layer utilization (%)
system.tol2bus.respLayer25.occupancy          4632991                       # Layer occupancy (ticks)
system.tol2bus.respLayer25.utilization            0.4                       # Layer utilization (%)
system.tol2bus.respLayer26.occupancy          4969909                       # Layer occupancy (ticks)
system.tol2bus.respLayer26.utilization            0.4                       # Layer utilization (%)
system.tol2bus.respLayer27.occupancy          5938634                       # Layer occupancy (ticks)
system.tol2bus.respLayer27.utilization            0.4                       # Layer utilization (%)
system.tol2bus.respLayer28.occupancy          4784128                       # Layer occupancy (ticks)
system.tol2bus.respLayer28.utilization            0.4                       # Layer utilization (%)
system.tol2bus.respLayer29.occupancy          5433126                       # Layer occupancy (ticks)
system.tol2bus.respLayer29.utilization            0.4                       # Layer utilization (%)
system.tol2bus.respLayer30.occupancy          4436247                       # Layer occupancy (ticks)
system.tol2bus.respLayer30.utilization            0.3                       # Layer utilization (%)
system.tol2bus.respLayer31.occupancy          5902693                       # Layer occupancy (ticks)
system.tol2bus.respLayer31.utilization            0.4                       # Layer utilization (%)

---------- End Simulation Statistics   ----------
