
---------- Begin Simulation Statistics ----------
sim_seconds                                  0.010257                       # Number of seconds simulated
sim_ticks                                 10257260850                       # Number of ticks simulated
final_tick                                10257260850                       # Number of ticks from beginning of simulation (restored from checkpoints and never reset)
sim_freq                                 1000000000000                       # Frequency of simulated ticks
host_inst_rate                                  90822                       # Simulator instruction rate (inst/s)
host_op_rate                                    90822                       # Simulator op (including micro ops) rate (op/s)
host_tick_rate                               14552254                       # Simulator tick rate (ticks/s)
host_mem_usage                                 692784                       # Number of bytes of host memory used
host_seconds                                   704.86                       # Real time elapsed on the host
sim_insts                                    64016852                       # Number of instructions simulated
sim_ops                                      64016852                       # Number of ops (including micro ops) simulated
system.voltage_domain.voltage                       1                       # Voltage in Volts
system.clk_domain.clock                          1000                       # Clock period in ticks
system.mem_ctrls.bytes_read::cpu00.inst        129024                       # Number of bytes read from this memory
system.mem_ctrls.bytes_read::cpu00.data        875392                       # Number of bytes read from this memory
system.mem_ctrls.bytes_read::cpu01.inst         12736                       # Number of bytes read from this memory
system.mem_ctrls.bytes_read::cpu01.data        609920                       # Number of bytes read from this memory
system.mem_ctrls.bytes_read::cpu02.inst          1152                       # Number of bytes read from this memory
system.mem_ctrls.bytes_read::cpu02.data        531520                       # Number of bytes read from this memory
system.mem_ctrls.bytes_read::cpu03.inst           320                       # Number of bytes read from this memory
system.mem_ctrls.bytes_read::cpu03.data        522496                       # Number of bytes read from this memory
system.mem_ctrls.bytes_read::cpu04.inst           128                       # Number of bytes read from this memory
system.mem_ctrls.bytes_read::cpu04.data        571904                       # Number of bytes read from this memory
system.mem_ctrls.bytes_read::cpu05.inst           256                       # Number of bytes read from this memory
system.mem_ctrls.bytes_read::cpu05.data        516032                       # Number of bytes read from this memory
system.mem_ctrls.bytes_read::cpu06.inst           320                       # Number of bytes read from this memory
system.mem_ctrls.bytes_read::cpu06.data        526528                       # Number of bytes read from this memory
system.mem_ctrls.bytes_read::cpu07.inst           128                       # Number of bytes read from this memory
system.mem_ctrls.bytes_read::cpu07.data        560256                       # Number of bytes read from this memory
system.mem_ctrls.bytes_read::cpu08.inst           128                       # Number of bytes read from this memory
system.mem_ctrls.bytes_read::cpu08.data        564608                       # Number of bytes read from this memory
system.mem_ctrls.bytes_read::cpu09.data        518784                       # Number of bytes read from this memory
system.mem_ctrls.bytes_read::cpu10.data        527552                       # Number of bytes read from this memory
system.mem_ctrls.bytes_read::cpu11.inst            64                       # Number of bytes read from this memory
system.mem_ctrls.bytes_read::cpu11.data        531648                       # Number of bytes read from this memory
system.mem_ctrls.bytes_read::cpu12.inst          1280                       # Number of bytes read from this memory
system.mem_ctrls.bytes_read::cpu12.data        549440                       # Number of bytes read from this memory
system.mem_ctrls.bytes_read::cpu13.inst            64                       # Number of bytes read from this memory
system.mem_ctrls.bytes_read::cpu13.data        517568                       # Number of bytes read from this memory
system.mem_ctrls.bytes_read::cpu14.inst           128                       # Number of bytes read from this memory
system.mem_ctrls.bytes_read::cpu14.data        529216                       # Number of bytes read from this memory
system.mem_ctrls.bytes_read::cpu15.inst           704                       # Number of bytes read from this memory
system.mem_ctrls.bytes_read::cpu15.data        548544                       # Number of bytes read from this memory
system.mem_ctrls.bytes_read::total            9147840                       # Number of bytes read from this memory
system.mem_ctrls.bytes_inst_read::cpu00.inst       129024                       # Number of instructions bytes read from this memory
system.mem_ctrls.bytes_inst_read::cpu01.inst        12736                       # Number of instructions bytes read from this memory
system.mem_ctrls.bytes_inst_read::cpu02.inst         1152                       # Number of instructions bytes read from this memory
system.mem_ctrls.bytes_inst_read::cpu03.inst          320                       # Number of instructions bytes read from this memory
system.mem_ctrls.bytes_inst_read::cpu04.inst          128                       # Number of instructions bytes read from this memory
system.mem_ctrls.bytes_inst_read::cpu05.inst          256                       # Number of instructions bytes read from this memory
system.mem_ctrls.bytes_inst_read::cpu06.inst          320                       # Number of instructions bytes read from this memory
system.mem_ctrls.bytes_inst_read::cpu07.inst          128                       # Number of instructions bytes read from this memory
system.mem_ctrls.bytes_inst_read::cpu08.inst          128                       # Number of instructions bytes read from this memory
system.mem_ctrls.bytes_inst_read::cpu11.inst           64                       # Number of instructions bytes read from this memory
system.mem_ctrls.bytes_inst_read::cpu12.inst         1280                       # Number of instructions bytes read from this memory
system.mem_ctrls.bytes_inst_read::cpu13.inst           64                       # Number of instructions bytes read from this memory
system.mem_ctrls.bytes_inst_read::cpu14.inst          128                       # Number of instructions bytes read from this memory
system.mem_ctrls.bytes_inst_read::cpu15.inst          704                       # Number of instructions bytes read from this memory
system.mem_ctrls.bytes_inst_read::total        146432                       # Number of instructions bytes read from this memory
system.mem_ctrls.bytes_written::writebacks      5623232                       # Number of bytes written to this memory
system.mem_ctrls.bytes_written::total         5623232                       # Number of bytes written to this memory
system.mem_ctrls.num_reads::cpu00.inst           2016                       # Number of read requests responded to by this memory
system.mem_ctrls.num_reads::cpu00.data          13678                       # Number of read requests responded to by this memory
system.mem_ctrls.num_reads::cpu01.inst            199                       # Number of read requests responded to by this memory
system.mem_ctrls.num_reads::cpu01.data           9530                       # Number of read requests responded to by this memory
system.mem_ctrls.num_reads::cpu02.inst             18                       # Number of read requests responded to by this memory
system.mem_ctrls.num_reads::cpu02.data           8305                       # Number of read requests responded to by this memory
system.mem_ctrls.num_reads::cpu03.inst              5                       # Number of read requests responded to by this memory
system.mem_ctrls.num_reads::cpu03.data           8164                       # Number of read requests responded to by this memory
system.mem_ctrls.num_reads::cpu04.inst              2                       # Number of read requests responded to by this memory
system.mem_ctrls.num_reads::cpu04.data           8936                       # Number of read requests responded to by this memory
system.mem_ctrls.num_reads::cpu05.inst              4                       # Number of read requests responded to by this memory
system.mem_ctrls.num_reads::cpu05.data           8063                       # Number of read requests responded to by this memory
system.mem_ctrls.num_reads::cpu06.inst              5                       # Number of read requests responded to by this memory
system.mem_ctrls.num_reads::cpu06.data           8227                       # Number of read requests responded to by this memory
system.mem_ctrls.num_reads::cpu07.inst              2                       # Number of read requests responded to by this memory
system.mem_ctrls.num_reads::cpu07.data           8754                       # Number of read requests responded to by this memory
system.mem_ctrls.num_reads::cpu08.inst              2                       # Number of read requests responded to by this memory
system.mem_ctrls.num_reads::cpu08.data           8822                       # Number of read requests responded to by this memory
system.mem_ctrls.num_reads::cpu09.data           8106                       # Number of read requests responded to by this memory
system.mem_ctrls.num_reads::cpu10.data           8243                       # Number of read requests responded to by this memory
system.mem_ctrls.num_reads::cpu11.inst              1                       # Number of read requests responded to by this memory
system.mem_ctrls.num_reads::cpu11.data           8307                       # Number of read requests responded to by this memory
system.mem_ctrls.num_reads::cpu12.inst             20                       # Number of read requests responded to by this memory
system.mem_ctrls.num_reads::cpu12.data           8585                       # Number of read requests responded to by this memory
system.mem_ctrls.num_reads::cpu13.inst              1                       # Number of read requests responded to by this memory
system.mem_ctrls.num_reads::cpu13.data           8087                       # Number of read requests responded to by this memory
system.mem_ctrls.num_reads::cpu14.inst              2                       # Number of read requests responded to by this memory
system.mem_ctrls.num_reads::cpu14.data           8269                       # Number of read requests responded to by this memory
system.mem_ctrls.num_reads::cpu15.inst             11                       # Number of read requests responded to by this memory
system.mem_ctrls.num_reads::cpu15.data           8571                       # Number of read requests responded to by this memory
system.mem_ctrls.num_reads::total              142935                       # Number of read requests responded to by this memory
system.mem_ctrls.num_writes::writebacks         87863                       # Number of write requests responded to by this memory
system.mem_ctrls.num_writes::total              87863                       # Number of write requests responded to by this memory
system.mem_ctrls.bw_read::cpu00.inst         12578797                       # Total read bandwidth from this memory (bytes/s)
system.mem_ctrls.bw_read::cpu00.data         85343642                       # Total read bandwidth from this memory (bytes/s)
system.mem_ctrls.bw_read::cpu01.inst          1241657                       # Total read bandwidth from this memory (bytes/s)
system.mem_ctrls.bw_read::cpu01.data         59462269                       # Total read bandwidth from this memory (bytes/s)
system.mem_ctrls.bw_read::cpu02.inst           112311                       # Total read bandwidth from this memory (bytes/s)
system.mem_ctrls.bw_read::cpu02.data         51818903                       # Total read bandwidth from this memory (bytes/s)
system.mem_ctrls.bw_read::cpu03.inst            31197                       # Total read bandwidth from this memory (bytes/s)
system.mem_ctrls.bw_read::cpu03.data         50939135                       # Total read bandwidth from this memory (bytes/s)
system.mem_ctrls.bw_read::cpu04.inst            12479                       # Total read bandwidth from this memory (bytes/s)
system.mem_ctrls.bw_read::cpu04.data         55756016                       # Total read bandwidth from this memory (bytes/s)
system.mem_ctrls.bw_read::cpu05.inst            24958                       # Total read bandwidth from this memory (bytes/s)
system.mem_ctrls.bw_read::cpu05.data         50308948                       # Total read bandwidth from this memory (bytes/s)
system.mem_ctrls.bw_read::cpu06.inst            31197                       # Total read bandwidth from this memory (bytes/s)
system.mem_ctrls.bw_read::cpu06.data         51332223                       # Total read bandwidth from this memory (bytes/s)
system.mem_ctrls.bw_read::cpu07.inst            12479                       # Total read bandwidth from this memory (bytes/s)
system.mem_ctrls.bw_read::cpu07.data         54620430                       # Total read bandwidth from this memory (bytes/s)
system.mem_ctrls.bw_read::cpu08.inst            12479                       # Total read bandwidth from this memory (bytes/s)
system.mem_ctrls.bw_read::cpu08.data         55044715                       # Total read bandwidth from this memory (bytes/s)
system.mem_ctrls.bw_read::cpu09.data         50577245                       # Total read bandwidth from this memory (bytes/s)
system.mem_ctrls.bw_read::cpu10.data         51432055                       # Total read bandwidth from this memory (bytes/s)
system.mem_ctrls.bw_read::cpu11.inst             6239                       # Total read bandwidth from this memory (bytes/s)
system.mem_ctrls.bw_read::cpu11.data         51831381                       # Total read bandwidth from this memory (bytes/s)
system.mem_ctrls.bw_read::cpu12.inst           124790                       # Total read bandwidth from this memory (bytes/s)
system.mem_ctrls.bw_read::cpu12.data         53565958                       # Total read bandwidth from this memory (bytes/s)
system.mem_ctrls.bw_read::cpu13.inst             6239                       # Total read bandwidth from this memory (bytes/s)
system.mem_ctrls.bw_read::cpu13.data         50458695                       # Total read bandwidth from this memory (bytes/s)
system.mem_ctrls.bw_read::cpu14.inst            12479                       # Total read bandwidth from this memory (bytes/s)
system.mem_ctrls.bw_read::cpu14.data         51594281                       # Total read bandwidth from this memory (bytes/s)
system.mem_ctrls.bw_read::cpu15.inst            68634                       # Total read bandwidth from this memory (bytes/s)
system.mem_ctrls.bw_read::cpu15.data         53478605                       # Total read bandwidth from this memory (bytes/s)
system.mem_ctrls.bw_read::total             891840437                       # Total read bandwidth from this memory (bytes/s)
system.mem_ctrls.bw_inst_read::cpu00.inst     12578797                       # Instruction read bandwidth from this memory (bytes/s)
system.mem_ctrls.bw_inst_read::cpu01.inst      1241657                       # Instruction read bandwidth from this memory (bytes/s)
system.mem_ctrls.bw_inst_read::cpu02.inst       112311                       # Instruction read bandwidth from this memory (bytes/s)
system.mem_ctrls.bw_inst_read::cpu03.inst        31197                       # Instruction read bandwidth from this memory (bytes/s)
system.mem_ctrls.bw_inst_read::cpu04.inst        12479                       # Instruction read bandwidth from this memory (bytes/s)
system.mem_ctrls.bw_inst_read::cpu05.inst        24958                       # Instruction read bandwidth from this memory (bytes/s)
system.mem_ctrls.bw_inst_read::cpu06.inst        31197                       # Instruction read bandwidth from this memory (bytes/s)
system.mem_ctrls.bw_inst_read::cpu07.inst        12479                       # Instruction read bandwidth from this memory (bytes/s)
system.mem_ctrls.bw_inst_read::cpu08.inst        12479                       # Instruction read bandwidth from this memory (bytes/s)
system.mem_ctrls.bw_inst_read::cpu11.inst         6239                       # Instruction read bandwidth from this memory (bytes/s)
system.mem_ctrls.bw_inst_read::cpu12.inst       124790                       # Instruction read bandwidth from this memory (bytes/s)
system.mem_ctrls.bw_inst_read::cpu13.inst         6239                       # Instruction read bandwidth from this memory (bytes/s)
system.mem_ctrls.bw_inst_read::cpu14.inst        12479                       # Instruction read bandwidth from this memory (bytes/s)
system.mem_ctrls.bw_inst_read::cpu15.inst        68634                       # Instruction read bandwidth from this memory (bytes/s)
system.mem_ctrls.bw_inst_read::total         14275936                       # Instruction read bandwidth from this memory (bytes/s)
system.mem_ctrls.bw_write::writebacks       548219655                       # Write bandwidth from this memory (bytes/s)
system.mem_ctrls.bw_write::total            548219655                       # Write bandwidth from this memory (bytes/s)
system.mem_ctrls.bw_total::writebacks       548219655                       # Total bandwidth to/from this memory (bytes/s)
system.mem_ctrls.bw_total::cpu00.inst        12578797                       # Total bandwidth to/from this memory (bytes/s)
system.mem_ctrls.bw_total::cpu00.data        85343642                       # Total bandwidth to/from this memory (bytes/s)
system.mem_ctrls.bw_total::cpu01.inst         1241657                       # Total bandwidth to/from this memory (bytes/s)
system.mem_ctrls.bw_total::cpu01.data        59462269                       # Total bandwidth to/from this memory (bytes/s)
system.mem_ctrls.bw_total::cpu02.inst          112311                       # Total bandwidth to/from this memory (bytes/s)
system.mem_ctrls.bw_total::cpu02.data        51818903                       # Total bandwidth to/from this memory (bytes/s)
system.mem_ctrls.bw_total::cpu03.inst           31197                       # Total bandwidth to/from this memory (bytes/s)
system.mem_ctrls.bw_total::cpu03.data        50939135                       # Total bandwidth to/from this memory (bytes/s)
system.mem_ctrls.bw_total::cpu04.inst           12479                       # Total bandwidth to/from this memory (bytes/s)
system.mem_ctrls.bw_total::cpu04.data        55756016                       # Total bandwidth to/from this memory (bytes/s)
system.mem_ctrls.bw_total::cpu05.inst           24958                       # Total bandwidth to/from this memory (bytes/s)
system.mem_ctrls.bw_total::cpu05.data        50308948                       # Total bandwidth to/from this memory (bytes/s)
system.mem_ctrls.bw_total::cpu06.inst           31197                       # Total bandwidth to/from this memory (bytes/s)
system.mem_ctrls.bw_total::cpu06.data        51332223                       # Total bandwidth to/from this memory (bytes/s)
system.mem_ctrls.bw_total::cpu07.inst           12479                       # Total bandwidth to/from this memory (bytes/s)
system.mem_ctrls.bw_total::cpu07.data        54620430                       # Total bandwidth to/from this memory (bytes/s)
system.mem_ctrls.bw_total::cpu08.inst           12479                       # Total bandwidth to/from this memory (bytes/s)
system.mem_ctrls.bw_total::cpu08.data        55044715                       # Total bandwidth to/from this memory (bytes/s)
system.mem_ctrls.bw_total::cpu09.data        50577245                       # Total bandwidth to/from this memory (bytes/s)
system.mem_ctrls.bw_total::cpu10.data        51432055                       # Total bandwidth to/from this memory (bytes/s)
system.mem_ctrls.bw_total::cpu11.inst            6239                       # Total bandwidth to/from this memory (bytes/s)
system.mem_ctrls.bw_total::cpu11.data        51831381                       # Total bandwidth to/from this memory (bytes/s)
system.mem_ctrls.bw_total::cpu12.inst          124790                       # Total bandwidth to/from this memory (bytes/s)
system.mem_ctrls.bw_total::cpu12.data        53565958                       # Total bandwidth to/from this memory (bytes/s)
system.mem_ctrls.bw_total::cpu13.inst            6239                       # Total bandwidth to/from this memory (bytes/s)
system.mem_ctrls.bw_total::cpu13.data        50458695                       # Total bandwidth to/from this memory (bytes/s)
system.mem_ctrls.bw_total::cpu14.inst           12479                       # Total bandwidth to/from this memory (bytes/s)
system.mem_ctrls.bw_total::cpu14.data        51594281                       # Total bandwidth to/from this memory (bytes/s)
system.mem_ctrls.bw_total::cpu15.inst           68634                       # Total bandwidth to/from this memory (bytes/s)
system.mem_ctrls.bw_total::cpu15.data        53478605                       # Total bandwidth to/from this memory (bytes/s)
system.mem_ctrls.bw_total::total           1440060092                       # Total bandwidth to/from this memory (bytes/s)
system.cpu00.branchPred.lookups                332769                       # Number of BP lookups
system.cpu00.branchPred.condPredicted          167503                       # Number of conditional branches predicted
system.cpu00.branchPred.condIncorrect            5300                       # Number of conditional branches incorrect
system.cpu00.branchPred.BTBLookups             233419                       # Number of BTB lookups
system.cpu00.branchPred.BTBHits                210746                       # Number of BTB hits
system.cpu00.branchPred.BTBCorrect                  0                       # Number of correct BTB predictions (this stat may not work properly.
system.cpu00.branchPred.BTBHitPct           90.286566                       # BTB Hit Percentage
system.cpu00.branchPred.usedRAS                 79661                       # Number of times the RAS was used to get a target.
system.cpu00.branchPred.RASInCorrect               82                       # Number of incorrect RAS predictions.
system.cpu00.branchPred.indirectLookups          1712                       # Number of indirect predictor lookups.
system.cpu00.branchPred.indirectHits              982                       # Number of indirect target hits.
system.cpu00.branchPred.indirectMisses            730                       # Number of indirect misses.
system.cpu00.branchPredindirectMispredicted          231                       # Number of mispredicted indirect branches.
system.cpu_voltage_domain.voltage                   1                       # Voltage in Volts
system.cpu_clk_domain.clock                      1161                       # Clock period in ticks
system.cpu00.dtb.fetch_hits                         0                       # ITB hits
system.cpu00.dtb.fetch_misses                       0                       # ITB misses
system.cpu00.dtb.fetch_acv                          0                       # ITB acv
system.cpu00.dtb.fetch_accesses                     0                       # ITB accesses
system.cpu00.dtb.read_hits                    1176032                       # DTB read hits
system.cpu00.dtb.read_misses                     7883                       # DTB read misses
system.cpu00.dtb.read_acv                           2                       # DTB read access violations
system.cpu00.dtb.read_accesses                1183915                       # DTB read accesses
system.cpu00.dtb.write_hits                    352555                       # DTB write hits
system.cpu00.dtb.write_misses                   58921                       # DTB write misses
system.cpu00.dtb.write_acv                          0                       # DTB write access violations
system.cpu00.dtb.write_accesses                411476                       # DTB write accesses
system.cpu00.dtb.data_hits                    1528587                       # DTB hits
system.cpu00.dtb.data_misses                    66804                       # DTB misses
system.cpu00.dtb.data_acv                           2                       # DTB access violations
system.cpu00.dtb.data_accesses                1595391                       # DTB accesses
system.cpu00.itb.fetch_hits                    767476                       # ITB hits
system.cpu00.itb.fetch_misses                     168                       # ITB misses
system.cpu00.itb.fetch_acv                          0                       # ITB acv
system.cpu00.itb.fetch_accesses                767644                       # ITB accesses
system.cpu00.itb.read_hits                          0                       # DTB read hits
system.cpu00.itb.read_misses                        0                       # DTB read misses
system.cpu00.itb.read_acv                           0                       # DTB read access violations
system.cpu00.itb.read_accesses                      0                       # DTB read accesses
system.cpu00.itb.write_hits                         0                       # DTB write hits
system.cpu00.itb.write_misses                       0                       # DTB write misses
system.cpu00.itb.write_acv                          0                       # DTB write access violations
system.cpu00.itb.write_accesses                     0                       # DTB write accesses
system.cpu00.itb.data_hits                          0                       # DTB hits
system.cpu00.itb.data_misses                        0                       # DTB misses
system.cpu00.itb.data_acv                           0                       # DTB access violations
system.cpu00.itb.data_accesses                      0                       # DTB accesses
system.cpu00.workload.num_syscalls               1713                       # Number of system calls
system.cpu00.numCycles                        8515930                       # number of cpu cycles simulated
system.cpu00.numWorkItemsStarted                    0                       # number of work items this cpu started
system.cpu00.numWorkItemsCompleted                  0                       # number of work items this cpu completed
system.cpu00.fetch.icacheStallCycles            90863                       # Number of cycles fetch is stalled on an Icache miss
system.cpu00.fetch.Insts                      7375678                       # Number of instructions fetch has processed
system.cpu00.fetch.Branches                    332769                       # Number of branches that fetch encountered
system.cpu00.fetch.predictedBranches           291389                       # Number of branches that fetch has predicted taken
system.cpu00.fetch.Cycles                     8179064                       # Number of cycles fetch has run and was not squashing or blocked
system.cpu00.fetch.SquashCycles                 48450                       # Number of cycles fetch has spent squashing
system.cpu00.fetch.MiscStallCycles                 97                       # Number of cycles fetch has spent waiting on interrupts, or bad addresses, or out of MSHRs
system.cpu00.fetch.PendingTrapStallCycles         6921                       # Number of stall cycles due to pending traps
system.cpu00.fetch.IcacheWaitRetryStallCycles           74                       # Number of stall cycles due to full MSHR
system.cpu00.fetch.CacheLines                  767476                       # Number of cache lines fetched
system.cpu00.fetch.IcacheSquashes                2541                       # Number of outstanding Icache misses that were squashed
system.cpu00.fetch.rateDist::samples          8301244                       # Number of instructions fetched each cycle (Total)
system.cpu00.fetch.rateDist::mean            0.888503                       # Number of instructions fetched each cycle (Total)
system.cpu00.fetch.rateDist::stdev           2.247341                       # Number of instructions fetched each cycle (Total)
system.cpu00.fetch.rateDist::underflows             0      0.00%      0.00% # Number of instructions fetched each cycle (Total)
system.cpu00.fetch.rateDist::0                6949389     83.72%     83.72% # Number of instructions fetched each cycle (Total)
system.cpu00.fetch.rateDist::1                  35540      0.43%     84.14% # Number of instructions fetched each cycle (Total)
system.cpu00.fetch.rateDist::2                 258542      3.11%     87.26% # Number of instructions fetched each cycle (Total)
system.cpu00.fetch.rateDist::3                  29694      0.36%     87.62% # Number of instructions fetched each cycle (Total)
system.cpu00.fetch.rateDist::4                 269183      3.24%     90.86% # Number of instructions fetched each cycle (Total)
system.cpu00.fetch.rateDist::5                  49370      0.59%     91.45% # Number of instructions fetched each cycle (Total)
system.cpu00.fetch.rateDist::6                  89274      1.08%     92.53% # Number of instructions fetched each cycle (Total)
system.cpu00.fetch.rateDist::7                  87270      1.05%     93.58% # Number of instructions fetched each cycle (Total)
system.cpu00.fetch.rateDist::8                 532982      6.42%    100.00% # Number of instructions fetched each cycle (Total)
system.cpu00.fetch.rateDist::overflows              0      0.00%    100.00% # Number of instructions fetched each cycle (Total)
system.cpu00.fetch.rateDist::min_value              0                       # Number of instructions fetched each cycle (Total)
system.cpu00.fetch.rateDist::max_value              8                       # Number of instructions fetched each cycle (Total)
system.cpu00.fetch.rateDist::total            8301244                       # Number of instructions fetched each cycle (Total)
system.cpu00.fetch.branchRate                0.039076                       # Number of branch fetches per cycle
system.cpu00.fetch.rate                      0.866104                       # Number of inst fetches per cycle
system.cpu00.decode.IdleCycles                 258728                       # Number of cycles decode is idle
system.cpu00.decode.BlockedCycles             7178263                       # Number of cycles decode is blocked
system.cpu00.decode.RunCycles                  334504                       # Number of cycles decode is running
system.cpu00.decode.UnblockCycles              507171                       # Number of cycles decode is unblocking
system.cpu00.decode.SquashCycles                22578                       # Number of cycles decode is squashing
system.cpu00.decode.BranchResolved              81637                       # Number of times decode resolved a branch
system.cpu00.decode.BranchMispred                1706                       # Number of times decode detected a branch misprediction
system.cpu00.decode.DecodedInsts              6492670                       # Number of instructions handled by decode
system.cpu00.decode.SquashedInsts                7002                       # Number of squashed instructions handled by decode
system.cpu00.rename.SquashCycles                22578                       # Number of cycles rename is squashing
system.cpu00.rename.IdleCycles                 381269                       # Number of cycles rename is idle
system.cpu00.rename.BlockCycles               3131712                       # Number of cycles rename is blocking
system.cpu00.rename.serializeStallCycles        94103                       # count of cycles rename stalled for serializing inst
system.cpu00.rename.RunCycles                  641143                       # Number of cycles rename is running
system.cpu00.rename.UnblockCycles             4030439                       # Number of cycles rename is unblocking
system.cpu00.rename.RenamedInsts              6326722                       # Number of instructions processed by rename
system.cpu00.rename.ROBFullEvents                2620                       # Number of times rename has blocked due to ROB full
system.cpu00.rename.IQFullEvents              2088883                       # Number of times rename has blocked due to IQ full
system.cpu00.rename.LQFullEvents              1647731                       # Number of times rename has blocked due to LQ full
system.cpu00.rename.SQFullEvents               259489                       # Number of times rename has blocked due to SQ full
system.cpu00.rename.RenamedOperands           5427611                       # Number of destination operands rename has renamed
system.cpu00.rename.RenameLookups             9150772                       # Number of register rename lookups that rename has made
system.cpu00.rename.int_rename_lookups        5132527                       # Number of integer rename lookups
system.cpu00.rename.fp_rename_lookups         4017993                       # Number of floating rename lookups
system.cpu00.rename.CommittedMaps             3930945                       # Number of HB maps that are committed
system.cpu00.rename.UndoneMaps                1496666                       # Number of HB maps that are undone due to squashing
system.cpu00.rename.serializingInsts             2287                       # count of serializing insts renamed
system.cpu00.rename.tempSerializingInsts         1946                       # count of temporary serializing insts renamed
system.cpu00.rename.skidInsts                 3385018                       # count of insts added to the skid buffer
system.cpu00.memDep0.insertedLoads            1197991                       # Number of loads inserted to the mem dependence unit.
system.cpu00.memDep0.insertedStores            532674                       # Number of stores inserted to the mem dependence unit.
system.cpu00.memDep0.conflictingLoads          371105                       # Number of conflicting loads.
system.cpu00.memDep0.conflictingStores         201285                       # Number of conflicting stores.
system.cpu00.iq.iqInstsAdded                  6223109                       # Number of instructions added to the IQ (excludes non-spec)
system.cpu00.iq.iqNonSpecInstsAdded              3188                       # Number of non-speculative instructions added to the IQ
system.cpu00.iq.iqInstsIssued                 5920979                       # Number of instructions issued
system.cpu00.iq.iqSquashedInstsIssued            6758                       # Number of squashed instructions issued
system.cpu00.iq.iqSquashedInstsExamined       1880647                       # Number of squashed instructions iterated over during squash; mainly for profiling
system.cpu00.iq.iqSquashedOperandsExamined       787935                       # Number of squashed operands that are examined and possibly removed from graph
system.cpu00.iq.iqSquashedNonSpecRemoved          485                       # Number of squashed non-spec instructions that were removed
system.cpu00.iq.issued_per_cycle::samples      8301244                       # Number of insts issued each cycle
system.cpu00.iq.issued_per_cycle::mean       0.713264                       # Number of insts issued each cycle
system.cpu00.iq.issued_per_cycle::stdev      1.206418                       # Number of insts issued each cycle
system.cpu00.iq.issued_per_cycle::underflows            0      0.00%      0.00% # Number of insts issued each cycle
system.cpu00.iq.issued_per_cycle::0           4828713     58.17%     58.17% # Number of insts issued each cycle
system.cpu00.iq.issued_per_cycle::1           2246559     27.06%     85.23% # Number of insts issued each cycle
system.cpu00.iq.issued_per_cycle::2            713644      8.60%     93.83% # Number of insts issued each cycle
system.cpu00.iq.issued_per_cycle::3            217020      2.61%     96.44% # Number of insts issued each cycle
system.cpu00.iq.issued_per_cycle::4            114160      1.38%     97.82% # Number of insts issued each cycle
system.cpu00.iq.issued_per_cycle::5             64771      0.78%     98.60% # Number of insts issued each cycle
system.cpu00.iq.issued_per_cycle::6             44268      0.53%     99.13% # Number of insts issued each cycle
system.cpu00.iq.issued_per_cycle::7             26903      0.32%     99.46% # Number of insts issued each cycle
system.cpu00.iq.issued_per_cycle::8             45206      0.54%    100.00% # Number of insts issued each cycle
system.cpu00.iq.issued_per_cycle::overflows            0      0.00%    100.00% # Number of insts issued each cycle
system.cpu00.iq.issued_per_cycle::min_value            0                       # Number of insts issued each cycle
system.cpu00.iq.issued_per_cycle::max_value            8                       # Number of insts issued each cycle
system.cpu00.iq.issued_per_cycle::total       8301244                       # Number of insts issued each cycle
system.cpu00.iq.fu_full::No_OpClass                 0      0.00%      0.00% # attempts to use FU when none available
system.cpu00.iq.fu_full::IntAlu                  4510     10.01%     10.01% # attempts to use FU when none available
system.cpu00.iq.fu_full::IntMult                    0      0.00%     10.01% # attempts to use FU when none available
system.cpu00.iq.fu_full::IntDiv                     0      0.00%     10.01% # attempts to use FU when none available
system.cpu00.iq.fu_full::FloatAdd                   0      0.00%     10.01% # attempts to use FU when none available
system.cpu00.iq.fu_full::FloatCmp                   0      0.00%     10.01% # attempts to use FU when none available
system.cpu00.iq.fu_full::FloatCvt                   0      0.00%     10.01% # attempts to use FU when none available
system.cpu00.iq.fu_full::FloatMult               8237     18.28%     28.28% # attempts to use FU when none available
system.cpu00.iq.fu_full::FloatDiv                   0      0.00%     28.28% # attempts to use FU when none available
system.cpu00.iq.fu_full::FloatSqrt                  0      0.00%     28.28% # attempts to use FU when none available
system.cpu00.iq.fu_full::SimdAdd                    0      0.00%     28.28% # attempts to use FU when none available
system.cpu00.iq.fu_full::SimdAddAcc                 0      0.00%     28.28% # attempts to use FU when none available
system.cpu00.iq.fu_full::SimdAlu                    0      0.00%     28.28% # attempts to use FU when none available
system.cpu00.iq.fu_full::SimdCmp                    0      0.00%     28.28% # attempts to use FU when none available
system.cpu00.iq.fu_full::SimdCvt                    0      0.00%     28.28% # attempts to use FU when none available
system.cpu00.iq.fu_full::SimdMisc                   0      0.00%     28.28% # attempts to use FU when none available
system.cpu00.iq.fu_full::SimdMult                   0      0.00%     28.28% # attempts to use FU when none available
system.cpu00.iq.fu_full::SimdMultAcc                0      0.00%     28.28% # attempts to use FU when none available
system.cpu00.iq.fu_full::SimdShift                  0      0.00%     28.28% # attempts to use FU when none available
system.cpu00.iq.fu_full::SimdShiftAcc               0      0.00%     28.28% # attempts to use FU when none available
system.cpu00.iq.fu_full::SimdSqrt                   0      0.00%     28.28% # attempts to use FU when none available
system.cpu00.iq.fu_full::SimdFloatAdd               0      0.00%     28.28% # attempts to use FU when none available
system.cpu00.iq.fu_full::SimdFloatAlu               0      0.00%     28.28% # attempts to use FU when none available
system.cpu00.iq.fu_full::SimdFloatCmp               0      0.00%     28.28% # attempts to use FU when none available
system.cpu00.iq.fu_full::SimdFloatCvt               0      0.00%     28.28% # attempts to use FU when none available
system.cpu00.iq.fu_full::SimdFloatDiv               0      0.00%     28.28% # attempts to use FU when none available
system.cpu00.iq.fu_full::SimdFloatMisc              0      0.00%     28.28% # attempts to use FU when none available
system.cpu00.iq.fu_full::SimdFloatMult              0      0.00%     28.28% # attempts to use FU when none available
system.cpu00.iq.fu_full::SimdFloatMultAcc            0      0.00%     28.28% # attempts to use FU when none available
system.cpu00.iq.fu_full::SimdFloatSqrt              0      0.00%     28.28% # attempts to use FU when none available
system.cpu00.iq.fu_full::MemRead                25268     56.07%     84.35% # attempts to use FU when none available
system.cpu00.iq.fu_full::MemWrite                7053     15.65%    100.00% # attempts to use FU when none available
system.cpu00.iq.fu_full::IprAccess                  0      0.00%    100.00% # attempts to use FU when none available
system.cpu00.iq.fu_full::InstPrefetch               0      0.00%    100.00% # attempts to use FU when none available
system.cpu00.iq.FU_type_0::No_OpClass               0      0.00%      0.00% # Type of FU issued
system.cpu00.iq.FU_type_0::IntAlu             1752545     29.60%     29.60% # Type of FU issued
system.cpu00.iq.FU_type_0::IntMult                251      0.00%     29.60% # Type of FU issued
system.cpu00.iq.FU_type_0::IntDiv                   0      0.00%     29.60% # Type of FU issued
system.cpu00.iq.FU_type_0::FloatAdd           1713574     28.94%     58.54% # Type of FU issued
system.cpu00.iq.FU_type_0::FloatCmp                11      0.00%     58.54% # Type of FU issued
system.cpu00.iq.FU_type_0::FloatCvt                 0      0.00%     58.54% # Type of FU issued
system.cpu00.iq.FU_type_0::FloatMult           852373     14.40%     72.94% # Type of FU issued
system.cpu00.iq.FU_type_0::FloatDiv                 0      0.00%     72.94% # Type of FU issued
system.cpu00.iq.FU_type_0::FloatSqrt                0      0.00%     72.94% # Type of FU issued
system.cpu00.iq.FU_type_0::SimdAdd                  0      0.00%     72.94% # Type of FU issued
system.cpu00.iq.FU_type_0::SimdAddAcc               0      0.00%     72.94% # Type of FU issued
system.cpu00.iq.FU_type_0::SimdAlu                  0      0.00%     72.94% # Type of FU issued
system.cpu00.iq.FU_type_0::SimdCmp                  0      0.00%     72.94% # Type of FU issued
system.cpu00.iq.FU_type_0::SimdCvt                  0      0.00%     72.94% # Type of FU issued
system.cpu00.iq.FU_type_0::SimdMisc                 0      0.00%     72.94% # Type of FU issued
system.cpu00.iq.FU_type_0::SimdMult                 0      0.00%     72.94% # Type of FU issued
system.cpu00.iq.FU_type_0::SimdMultAcc              0      0.00%     72.94% # Type of FU issued
system.cpu00.iq.FU_type_0::SimdShift                0      0.00%     72.94% # Type of FU issued
system.cpu00.iq.FU_type_0::SimdShiftAcc             0      0.00%     72.94% # Type of FU issued
system.cpu00.iq.FU_type_0::SimdSqrt                 0      0.00%     72.94% # Type of FU issued
system.cpu00.iq.FU_type_0::SimdFloatAdd             0      0.00%     72.94% # Type of FU issued
system.cpu00.iq.FU_type_0::SimdFloatAlu             0      0.00%     72.94% # Type of FU issued
system.cpu00.iq.FU_type_0::SimdFloatCmp             0      0.00%     72.94% # Type of FU issued
system.cpu00.iq.FU_type_0::SimdFloatCvt             0      0.00%     72.94% # Type of FU issued
system.cpu00.iq.FU_type_0::SimdFloatDiv             0      0.00%     72.94% # Type of FU issued
system.cpu00.iq.FU_type_0::SimdFloatMisc            0      0.00%     72.94% # Type of FU issued
system.cpu00.iq.FU_type_0::SimdFloatMult            0      0.00%     72.94% # Type of FU issued
system.cpu00.iq.FU_type_0::SimdFloatMultAcc            0      0.00%     72.94% # Type of FU issued
system.cpu00.iq.FU_type_0::SimdFloatSqrt            0      0.00%     72.94% # Type of FU issued
system.cpu00.iq.FU_type_0::MemRead            1188551     20.07%     93.01% # Type of FU issued
system.cpu00.iq.FU_type_0::MemWrite            413674      6.99%    100.00% # Type of FU issued
system.cpu00.iq.FU_type_0::IprAccess                0      0.00%    100.00% # Type of FU issued
system.cpu00.iq.FU_type_0::InstPrefetch             0      0.00%    100.00% # Type of FU issued
system.cpu00.iq.FU_type_0::total              5920979                       # Type of FU issued
system.cpu00.iq.rate                         0.695283                       # Inst issue rate
system.cpu00.iq.fu_busy_cnt                     45068                       # FU busy when requested
system.cpu00.iq.fu_busy_rate                 0.007612                       # FU busy rate (busy events/executed inst)
system.cpu00.iq.int_inst_queue_reads         14463275                       # Number of integer instruction queue reads
system.cpu00.iq.int_inst_queue_writes         5243463                       # Number of integer instruction queue writes
system.cpu00.iq.int_inst_queue_wakeup_accesses      2866596                       # Number of integer instruction queue wakeup accesses
system.cpu00.iq.fp_inst_queue_reads           5731753                       # Number of floating instruction queue reads
system.cpu00.iq.fp_inst_queue_writes          2863976                       # Number of floating instruction queue writes
system.cpu00.iq.fp_inst_queue_wakeup_accesses      2861637                       # Number of floating instruction queue wakeup accesses
system.cpu00.iq.int_alu_accesses              3096009                       # Number of integer alu accesses
system.cpu00.iq.fp_alu_accesses               2870038                       # Number of floating point alu accesses
system.cpu00.iew.lsq.thread0.forwLoads           9552                       # Number of loads that had data forwarded from stores
system.cpu00.iew.lsq.thread0.invAddrLoads            0                       # Number of loads ignored due to an invalid address
system.cpu00.iew.lsq.thread0.squashedLoads       595232                       # Number of loads squashed
system.cpu00.iew.lsq.thread0.ignoredResponses           48                       # Number of memory responses ignored because the instruction is squashed
system.cpu00.iew.lsq.thread0.memOrderViolation          505                       # Number of memory ordering violations
system.cpu00.iew.lsq.thread0.squashedStores       320546                       # Number of stores squashed
system.cpu00.iew.lsq.thread0.invAddrSwpfs            0                       # Number of software prefetches ignored due to an invalid address
system.cpu00.iew.lsq.thread0.blockedLoads            0                       # Number of blocked loads due to partial load-store forwarding
system.cpu00.iew.lsq.thread0.rescheduledLoads          258                       # Number of loads that were rescheduled
system.cpu00.iew.lsq.thread0.cacheBlocked       100675                       # Number of times an access to memory failed due to the cache being blocked
system.cpu00.iew.iewIdleCycles                      0                       # Number of cycles IEW is idle
system.cpu00.iew.iewSquashCycles                22578                       # Number of cycles IEW is squashing
system.cpu00.iew.iewBlockCycles                992627                       # Number of cycles IEW is blocking
system.cpu00.iew.iewUnblockCycles              820308                       # Number of cycles IEW is unblocking
system.cpu00.iew.iewDispatchedInsts           6292464                       # Number of instructions dispatched to IQ
system.cpu00.iew.iewDispSquashedInsts            1224                       # Number of squashed instructions skipped by dispatch
system.cpu00.iew.iewDispLoadInsts             1197991                       # Number of dispatched load instructions
system.cpu00.iew.iewDispStoreInsts             532674                       # Number of dispatched store instructions
system.cpu00.iew.iewDispNonSpecInsts             1863                       # Number of dispatched non-speculative instructions
system.cpu00.iew.iewIQFullEvents                44214                       # Number of times the IQ has become full, causing a stall
system.cpu00.iew.iewLSQFullEvents              670453                       # Number of times the LSQ has become full, causing a stall
system.cpu00.iew.memOrderViolationEvents          505                       # Number of memory order violations
system.cpu00.iew.predictedTakenIncorrect         1485                       # Number of branches that were predicted taken incorrectly
system.cpu00.iew.predictedNotTakenIncorrect         2941                       # Number of branches that were predicted not taken incorrectly
system.cpu00.iew.branchMispredicts               4426                       # Number of branch mispredicts detected at execute
system.cpu00.iew.iewExecutedInsts             5911979                       # Number of executed instructions
system.cpu00.iew.iewExecLoadInsts             1183932                       # Number of load instructions executed
system.cpu00.iew.iewExecSquashedInsts            9000                       # Number of squashed instructions skipped in execute
system.cpu00.iew.exec_swp                           0                       # number of swp insts executed
system.cpu00.iew.exec_nop                       66167                       # number of nop insts executed
system.cpu00.iew.exec_refs                    1595448                       # number of memory reference insts executed
system.cpu00.iew.exec_branches                 287756                       # Number of branches executed
system.cpu00.iew.exec_stores                   411516                       # Number of stores executed
system.cpu00.iew.exec_rate                   0.694226                       # Inst execution rate
system.cpu00.iew.wb_sent                      5797244                       # cumulative count of insts sent to commit
system.cpu00.iew.wb_count                     5728233                       # cumulative count of insts written-back
system.cpu00.iew.wb_producers                 4523811                       # num instructions producing a value
system.cpu00.iew.wb_consumers                 5918124                       # num instructions consuming a value
system.cpu00.iew.wb_rate                     0.672649                       # insts written-back per cycle
system.cpu00.iew.wb_fanout                   0.764399                       # average fanout of values written-back
system.cpu00.commit.commitSquashedInsts       1878026                       # The number of squashed insts skipped by commit
system.cpu00.commit.commitNonSpecStalls          2703                       # The number of times commit has been forced to stall to communicate backwards
system.cpu00.commit.branchMispredicts            3653                       # The number of times a branch was mispredicted
system.cpu00.commit.committed_per_cycle::samples      8053176                       # Number of insts commited each cycle
system.cpu00.commit.committed_per_cycle::mean     0.546857                       # Number of insts commited each cycle
system.cpu00.commit.committed_per_cycle::stdev     1.299852                       # Number of insts commited each cycle
system.cpu00.commit.committed_per_cycle::underflows            0      0.00%      0.00% # Number of insts commited each cycle
system.cpu00.commit.committed_per_cycle::0      5831054     72.41%     72.41% # Number of insts commited each cycle
system.cpu00.commit.committed_per_cycle::1      1332860     16.55%     88.96% # Number of insts commited each cycle
system.cpu00.commit.committed_per_cycle::2       495158      6.15%     95.11% # Number of insts commited each cycle
system.cpu00.commit.committed_per_cycle::3       140243      1.74%     96.85% # Number of insts commited each cycle
system.cpu00.commit.committed_per_cycle::4        20497      0.25%     97.10% # Number of insts commited each cycle
system.cpu00.commit.committed_per_cycle::5        80838      1.00%     98.11% # Number of insts commited each cycle
system.cpu00.commit.committed_per_cycle::6        12105      0.15%     98.26% # Number of insts commited each cycle
system.cpu00.commit.committed_per_cycle::7        22148      0.28%     98.53% # Number of insts commited each cycle
system.cpu00.commit.committed_per_cycle::8       118273      1.47%    100.00% # Number of insts commited each cycle
system.cpu00.commit.committed_per_cycle::overflows            0      0.00%    100.00% # Number of insts commited each cycle
system.cpu00.commit.committed_per_cycle::min_value            0                       # Number of insts commited each cycle
system.cpu00.commit.committed_per_cycle::max_value            8                       # Number of insts commited each cycle
system.cpu00.commit.committed_per_cycle::total      8053176                       # Number of insts commited each cycle
system.cpu00.commit.committedInsts            4403933                       # Number of instructions committed
system.cpu00.commit.committedOps              4403933                       # Number of ops (including micro ops) committed
system.cpu00.commit.swp_count                       0                       # Number of s/w prefetches committed
system.cpu00.commit.refs                       814887                       # Number of memory references committed
system.cpu00.commit.loads                      602759                       # Number of loads committed
system.cpu00.commit.membars                      1140                       # Number of memory barriers committed
system.cpu00.commit.branches                   242003                       # Number of branches committed
system.cpu00.commit.fp_insts                  2860888                       # Number of committed floating point instructions.
system.cpu00.commit.int_insts                 1784564                       # Number of committed integer instructions.
system.cpu00.commit.function_calls              75183                       # Number of function calls committed.
system.cpu00.commit.op_class_0::No_OpClass        58284      1.32%      1.32% # Class of committed instruction
system.cpu00.commit.op_class_0::IntAlu         964049     21.89%     23.21% # Class of committed instruction
system.cpu00.commit.op_class_0::IntMult           244      0.01%     23.22% # Class of committed instruction
system.cpu00.commit.op_class_0::IntDiv              0      0.00%     23.22% # Class of committed instruction
system.cpu00.commit.op_class_0::FloatAdd      1713053     38.90%     62.12% # Class of committed instruction
system.cpu00.commit.op_class_0::FloatCmp           10      0.00%     62.12% # Class of committed instruction
system.cpu00.commit.op_class_0::FloatCvt            0      0.00%     62.12% # Class of committed instruction
system.cpu00.commit.op_class_0::FloatMult       852265     19.35%     81.47% # Class of committed instruction
system.cpu00.commit.op_class_0::FloatDiv            0      0.00%     81.47% # Class of committed instruction
system.cpu00.commit.op_class_0::FloatSqrt            0      0.00%     81.47% # Class of committed instruction
system.cpu00.commit.op_class_0::SimdAdd             0      0.00%     81.47% # Class of committed instruction
system.cpu00.commit.op_class_0::SimdAddAcc            0      0.00%     81.47% # Class of committed instruction
system.cpu00.commit.op_class_0::SimdAlu             0      0.00%     81.47% # Class of committed instruction
system.cpu00.commit.op_class_0::SimdCmp             0      0.00%     81.47% # Class of committed instruction
system.cpu00.commit.op_class_0::SimdCvt             0      0.00%     81.47% # Class of committed instruction
system.cpu00.commit.op_class_0::SimdMisc            0      0.00%     81.47% # Class of committed instruction
system.cpu00.commit.op_class_0::SimdMult            0      0.00%     81.47% # Class of committed instruction
system.cpu00.commit.op_class_0::SimdMultAcc            0      0.00%     81.47% # Class of committed instruction
system.cpu00.commit.op_class_0::SimdShift            0      0.00%     81.47% # Class of committed instruction
system.cpu00.commit.op_class_0::SimdShiftAcc            0      0.00%     81.47% # Class of committed instruction
system.cpu00.commit.op_class_0::SimdSqrt            0      0.00%     81.47% # Class of committed instruction
system.cpu00.commit.op_class_0::SimdFloatAdd            0      0.00%     81.47% # Class of committed instruction
system.cpu00.commit.op_class_0::SimdFloatAlu            0      0.00%     81.47% # Class of committed instruction
system.cpu00.commit.op_class_0::SimdFloatCmp            0      0.00%     81.47% # Class of committed instruction
system.cpu00.commit.op_class_0::SimdFloatCvt            0      0.00%     81.47% # Class of committed instruction
system.cpu00.commit.op_class_0::SimdFloatDiv            0      0.00%     81.47% # Class of committed instruction
system.cpu00.commit.op_class_0::SimdFloatMisc            0      0.00%     81.47% # Class of committed instruction
system.cpu00.commit.op_class_0::SimdFloatMult            0      0.00%     81.47% # Class of committed instruction
system.cpu00.commit.op_class_0::SimdFloatMultAcc            0      0.00%     81.47% # Class of committed instruction
system.cpu00.commit.op_class_0::SimdFloatSqrt            0      0.00%     81.47% # Class of committed instruction
system.cpu00.commit.op_class_0::MemRead        603899     13.71%     95.18% # Class of committed instruction
system.cpu00.commit.op_class_0::MemWrite       212129      4.82%    100.00% # Class of committed instruction
system.cpu00.commit.op_class_0::IprAccess            0      0.00%    100.00% # Class of committed instruction
system.cpu00.commit.op_class_0::InstPrefetch            0      0.00%    100.00% # Class of committed instruction
system.cpu00.commit.op_class_0::total         4403933                       # Class of committed instruction
system.cpu00.commit.bw_lim_events              118273                       # number cycles where commit BW limit reached
system.cpu00.rob.rob_reads                   13976609                       # The number of ROB reads
system.cpu00.rob.rob_writes                  12812086                       # The number of ROB writes
system.cpu00.timesIdled                          1475                       # Number of times that the entire CPU went into an idle state and unscheduled itself
system.cpu00.idleCycles                        214686                       # Total number of cycles that the CPU has spent unscheduled due to idling
system.cpu00.quiesceCycles                     318921                       # Total number of cycles that CPU has spent quiesced or waiting for an interrupt
system.cpu00.committedInsts                   4345649                       # Number of Instructions Simulated
system.cpu00.committedOps                     4345649                       # Number of Ops (including micro ops) Simulated
system.cpu00.cpi                             1.959645                       # CPI: Cycles Per Instruction
system.cpu00.cpi_total                       1.959645                       # CPI: Total CPI of All Threads
system.cpu00.ipc                             0.510296                       # IPC: Instructions Per Cycle
system.cpu00.ipc_total                       0.510296                       # IPC: Total IPC of All Threads
system.cpu00.int_regfile_reads                4540362                       # number of integer regfile reads
system.cpu00.int_regfile_writes               2260374                       # number of integer regfile writes
system.cpu00.fp_regfile_reads                 4016757                       # number of floating regfile reads
system.cpu00.fp_regfile_writes                2836037                       # number of floating regfile writes
system.cpu00.misc_regfile_reads                  3011                       # number of misc regfile reads
system.cpu00.misc_regfile_writes                 2493                       # number of misc regfile writes
system.cpu00.dcache.tags.replacements           69154                       # number of replacements
system.cpu00.dcache.tags.tagsinuse          63.788167                       # Cycle average of tags in use
system.cpu00.dcache.tags.total_refs           1133166                       # Total number of references to valid blocks.
system.cpu00.dcache.tags.sampled_refs           69218                       # Sample count of references to valid blocks.
system.cpu00.dcache.tags.avg_refs           16.370973                       # Average number of references to valid blocks.
system.cpu00.dcache.tags.warmup_cycle        86665167                       # Cycle when the warmup percentage was hit.
system.cpu00.dcache.tags.occ_blocks::cpu00.data    63.788167                       # Average occupied blocks per requestor
system.cpu00.dcache.tags.occ_percent::cpu00.data     0.996690                       # Average percentage of cache occupancy
system.cpu00.dcache.tags.occ_percent::total     0.996690                       # Average percentage of cache occupancy
system.cpu00.dcache.tags.occ_task_id_blocks::1024           64                       # Occupied blocks per task id
system.cpu00.dcache.tags.age_task_id_blocks_1024::0           47                       # Occupied blocks per task id
system.cpu00.dcache.tags.age_task_id_blocks_1024::1           16                       # Occupied blocks per task id
system.cpu00.dcache.tags.age_task_id_blocks_1024::2            1                       # Occupied blocks per task id
system.cpu00.dcache.tags.occ_task_id_percent::1024            1                       # Percentage of cache occupancy per task id
system.cpu00.dcache.tags.tag_accesses         2646210                       # Number of tag accesses
system.cpu00.dcache.tags.data_accesses        2646210                       # Number of data accesses
system.cpu00.dcache.ReadReq_hits::cpu00.data       996450                       # number of ReadReq hits
system.cpu00.dcache.ReadReq_hits::total        996450                       # number of ReadReq hits
system.cpu00.dcache.WriteReq_hits::cpu00.data       134418                       # number of WriteReq hits
system.cpu00.dcache.WriteReq_hits::total       134418                       # number of WriteReq hits
system.cpu00.dcache.LoadLockedReq_hits::cpu00.data          973                       # number of LoadLockedReq hits
system.cpu00.dcache.LoadLockedReq_hits::total          973                       # number of LoadLockedReq hits
system.cpu00.dcache.StoreCondReq_hits::cpu00.data         1232                       # number of StoreCondReq hits
system.cpu00.dcache.StoreCondReq_hits::total         1232                       # number of StoreCondReq hits
system.cpu00.dcache.demand_hits::cpu00.data      1130868                       # number of demand (read+write) hits
system.cpu00.dcache.demand_hits::total        1130868                       # number of demand (read+write) hits
system.cpu00.dcache.overall_hits::cpu00.data      1130868                       # number of overall hits
system.cpu00.dcache.overall_hits::total       1130868                       # number of overall hits
system.cpu00.dcache.ReadReq_misses::cpu00.data        78527                       # number of ReadReq misses
system.cpu00.dcache.ReadReq_misses::total        78527                       # number of ReadReq misses
system.cpu00.dcache.WriteReq_misses::cpu00.data        76465                       # number of WriteReq misses
system.cpu00.dcache.WriteReq_misses::total        76465                       # number of WriteReq misses
system.cpu00.dcache.LoadLockedReq_misses::cpu00.data          322                       # number of LoadLockedReq misses
system.cpu00.dcache.LoadLockedReq_misses::total          322                       # number of LoadLockedReq misses
system.cpu00.dcache.StoreCondReq_misses::cpu00.data           13                       # number of StoreCondReq misses
system.cpu00.dcache.StoreCondReq_misses::total           13                       # number of StoreCondReq misses
system.cpu00.dcache.demand_misses::cpu00.data       154992                       # number of demand (read+write) misses
system.cpu00.dcache.demand_misses::total       154992                       # number of demand (read+write) misses
system.cpu00.dcache.overall_misses::cpu00.data       154992                       # number of overall misses
system.cpu00.dcache.overall_misses::total       154992                       # number of overall misses
system.cpu00.dcache.ReadReq_miss_latency::cpu00.data   6909360615                       # number of ReadReq miss cycles
system.cpu00.dcache.ReadReq_miss_latency::total   6909360615                       # number of ReadReq miss cycles
system.cpu00.dcache.WriteReq_miss_latency::cpu00.data  10859500328                       # number of WriteReq miss cycles
system.cpu00.dcache.WriteReq_miss_latency::total  10859500328                       # number of WriteReq miss cycles
system.cpu00.dcache.LoadLockedReq_miss_latency::cpu00.data      3890511                       # number of LoadLockedReq miss cycles
system.cpu00.dcache.LoadLockedReq_miss_latency::total      3890511                       # number of LoadLockedReq miss cycles
system.cpu00.dcache.StoreCondReq_miss_latency::cpu00.data        99846                       # number of StoreCondReq miss cycles
system.cpu00.dcache.StoreCondReq_miss_latency::total        99846                       # number of StoreCondReq miss cycles
system.cpu00.dcache.demand_miss_latency::cpu00.data  17768860943                       # number of demand (read+write) miss cycles
system.cpu00.dcache.demand_miss_latency::total  17768860943                       # number of demand (read+write) miss cycles
system.cpu00.dcache.overall_miss_latency::cpu00.data  17768860943                       # number of overall miss cycles
system.cpu00.dcache.overall_miss_latency::total  17768860943                       # number of overall miss cycles
system.cpu00.dcache.ReadReq_accesses::cpu00.data      1074977                       # number of ReadReq accesses(hits+misses)
system.cpu00.dcache.ReadReq_accesses::total      1074977                       # number of ReadReq accesses(hits+misses)
system.cpu00.dcache.WriteReq_accesses::cpu00.data       210883                       # number of WriteReq accesses(hits+misses)
system.cpu00.dcache.WriteReq_accesses::total       210883                       # number of WriteReq accesses(hits+misses)
system.cpu00.dcache.LoadLockedReq_accesses::cpu00.data         1295                       # number of LoadLockedReq accesses(hits+misses)
system.cpu00.dcache.LoadLockedReq_accesses::total         1295                       # number of LoadLockedReq accesses(hits+misses)
system.cpu00.dcache.StoreCondReq_accesses::cpu00.data         1245                       # number of StoreCondReq accesses(hits+misses)
system.cpu00.dcache.StoreCondReq_accesses::total         1245                       # number of StoreCondReq accesses(hits+misses)
system.cpu00.dcache.demand_accesses::cpu00.data      1285860                       # number of demand (read+write) accesses
system.cpu00.dcache.demand_accesses::total      1285860                       # number of demand (read+write) accesses
system.cpu00.dcache.overall_accesses::cpu00.data      1285860                       # number of overall (read+write) accesses
system.cpu00.dcache.overall_accesses::total      1285860                       # number of overall (read+write) accesses
system.cpu00.dcache.ReadReq_miss_rate::cpu00.data     0.073050                       # miss rate for ReadReq accesses
system.cpu00.dcache.ReadReq_miss_rate::total     0.073050                       # miss rate for ReadReq accesses
system.cpu00.dcache.WriteReq_miss_rate::cpu00.data     0.362594                       # miss rate for WriteReq accesses
system.cpu00.dcache.WriteReq_miss_rate::total     0.362594                       # miss rate for WriteReq accesses
system.cpu00.dcache.LoadLockedReq_miss_rate::cpu00.data     0.248649                       # miss rate for LoadLockedReq accesses
system.cpu00.dcache.LoadLockedReq_miss_rate::total     0.248649                       # miss rate for LoadLockedReq accesses
system.cpu00.dcache.StoreCondReq_miss_rate::cpu00.data     0.010442                       # miss rate for StoreCondReq accesses
system.cpu00.dcache.StoreCondReq_miss_rate::total     0.010442                       # miss rate for StoreCondReq accesses
system.cpu00.dcache.demand_miss_rate::cpu00.data     0.120536                       # miss rate for demand accesses
system.cpu00.dcache.demand_miss_rate::total     0.120536                       # miss rate for demand accesses
system.cpu00.dcache.overall_miss_rate::cpu00.data     0.120536                       # miss rate for overall accesses
system.cpu00.dcache.overall_miss_rate::total     0.120536                       # miss rate for overall accesses
system.cpu00.dcache.ReadReq_avg_miss_latency::cpu00.data 87987.069607                       # average ReadReq miss latency
system.cpu00.dcache.ReadReq_avg_miss_latency::total 87987.069607                       # average ReadReq miss latency
system.cpu00.dcache.WriteReq_avg_miss_latency::cpu00.data 142019.228771                       # average WriteReq miss latency
system.cpu00.dcache.WriteReq_avg_miss_latency::total 142019.228771                       # average WriteReq miss latency
system.cpu00.dcache.LoadLockedReq_avg_miss_latency::cpu00.data 12082.332298                       # average LoadLockedReq miss latency
system.cpu00.dcache.LoadLockedReq_avg_miss_latency::total 12082.332298                       # average LoadLockedReq miss latency
system.cpu00.dcache.StoreCondReq_avg_miss_latency::cpu00.data  7680.461538                       # average StoreCondReq miss latency
system.cpu00.dcache.StoreCondReq_avg_miss_latency::total  7680.461538                       # average StoreCondReq miss latency
system.cpu00.dcache.demand_avg_miss_latency::cpu00.data 114643.729631                       # average overall miss latency
system.cpu00.dcache.demand_avg_miss_latency::total 114643.729631                       # average overall miss latency
system.cpu00.dcache.overall_avg_miss_latency::cpu00.data 114643.729631                       # average overall miss latency
system.cpu00.dcache.overall_avg_miss_latency::total 114643.729631                       # average overall miss latency
system.cpu00.dcache.blocked_cycles::no_mshrs       357822                       # number of cycles access was blocked
system.cpu00.dcache.blocked_cycles::no_targets          178                       # number of cycles access was blocked
system.cpu00.dcache.blocked::no_mshrs           10924                       # number of cycles access was blocked
system.cpu00.dcache.blocked::no_targets            17                       # number of cycles access was blocked
system.cpu00.dcache.avg_blocked_cycles::no_mshrs    32.755584                       # average number of cycles each access was blocked
system.cpu00.dcache.avg_blocked_cycles::no_targets    10.470588                       # average number of cycles each access was blocked
system.cpu00.dcache.fast_writes                     0                       # number of fast writes performed
system.cpu00.dcache.cache_copies                    0                       # number of cache copies performed
system.cpu00.dcache.writebacks::writebacks        61071                       # number of writebacks
system.cpu00.dcache.writebacks::total           61071                       # number of writebacks
system.cpu00.dcache.ReadReq_mshr_hits::cpu00.data        48418                       # number of ReadReq MSHR hits
system.cpu00.dcache.ReadReq_mshr_hits::total        48418                       # number of ReadReq MSHR hits
system.cpu00.dcache.WriteReq_mshr_hits::cpu00.data        37290                       # number of WriteReq MSHR hits
system.cpu00.dcache.WriteReq_mshr_hits::total        37290                       # number of WriteReq MSHR hits
system.cpu00.dcache.LoadLockedReq_mshr_hits::cpu00.data          137                       # number of LoadLockedReq MSHR hits
system.cpu00.dcache.LoadLockedReq_mshr_hits::total          137                       # number of LoadLockedReq MSHR hits
system.cpu00.dcache.demand_mshr_hits::cpu00.data        85708                       # number of demand (read+write) MSHR hits
system.cpu00.dcache.demand_mshr_hits::total        85708                       # number of demand (read+write) MSHR hits
system.cpu00.dcache.overall_mshr_hits::cpu00.data        85708                       # number of overall MSHR hits
system.cpu00.dcache.overall_mshr_hits::total        85708                       # number of overall MSHR hits
system.cpu00.dcache.ReadReq_mshr_misses::cpu00.data        30109                       # number of ReadReq MSHR misses
system.cpu00.dcache.ReadReq_mshr_misses::total        30109                       # number of ReadReq MSHR misses
system.cpu00.dcache.WriteReq_mshr_misses::cpu00.data        39175                       # number of WriteReq MSHR misses
system.cpu00.dcache.WriteReq_mshr_misses::total        39175                       # number of WriteReq MSHR misses
system.cpu00.dcache.LoadLockedReq_mshr_misses::cpu00.data          185                       # number of LoadLockedReq MSHR misses
system.cpu00.dcache.LoadLockedReq_mshr_misses::total          185                       # number of LoadLockedReq MSHR misses
system.cpu00.dcache.StoreCondReq_mshr_misses::cpu00.data           13                       # number of StoreCondReq MSHR misses
system.cpu00.dcache.StoreCondReq_mshr_misses::total           13                       # number of StoreCondReq MSHR misses
system.cpu00.dcache.demand_mshr_misses::cpu00.data        69284                       # number of demand (read+write) MSHR misses
system.cpu00.dcache.demand_mshr_misses::total        69284                       # number of demand (read+write) MSHR misses
system.cpu00.dcache.overall_mshr_misses::cpu00.data        69284                       # number of overall MSHR misses
system.cpu00.dcache.overall_mshr_misses::total        69284                       # number of overall MSHR misses
system.cpu00.dcache.ReadReq_mshr_miss_latency::cpu00.data   2662817355                       # number of ReadReq MSHR miss cycles
system.cpu00.dcache.ReadReq_mshr_miss_latency::total   2662817355                       # number of ReadReq MSHR miss cycles
system.cpu00.dcache.WriteReq_mshr_miss_latency::cpu00.data   4835678679                       # number of WriteReq MSHR miss cycles
system.cpu00.dcache.WriteReq_mshr_miss_latency::total   4835678679                       # number of WriteReq MSHR miss cycles
system.cpu00.dcache.LoadLockedReq_mshr_miss_latency::cpu00.data      1812321                       # number of LoadLockedReq MSHR miss cycles
system.cpu00.dcache.LoadLockedReq_mshr_miss_latency::total      1812321                       # number of LoadLockedReq MSHR miss cycles
system.cpu00.dcache.StoreCondReq_mshr_miss_latency::cpu00.data        84753                       # number of StoreCondReq MSHR miss cycles
system.cpu00.dcache.StoreCondReq_mshr_miss_latency::total        84753                       # number of StoreCondReq MSHR miss cycles
system.cpu00.dcache.demand_mshr_miss_latency::cpu00.data   7498496034                       # number of demand (read+write) MSHR miss cycles
system.cpu00.dcache.demand_mshr_miss_latency::total   7498496034                       # number of demand (read+write) MSHR miss cycles
system.cpu00.dcache.overall_mshr_miss_latency::cpu00.data   7498496034                       # number of overall MSHR miss cycles
system.cpu00.dcache.overall_mshr_miss_latency::total   7498496034                       # number of overall MSHR miss cycles
system.cpu00.dcache.ReadReq_mshr_miss_rate::cpu00.data     0.028009                       # mshr miss rate for ReadReq accesses
system.cpu00.dcache.ReadReq_mshr_miss_rate::total     0.028009                       # mshr miss rate for ReadReq accesses
system.cpu00.dcache.WriteReq_mshr_miss_rate::cpu00.data     0.185767                       # mshr miss rate for WriteReq accesses
system.cpu00.dcache.WriteReq_mshr_miss_rate::total     0.185767                       # mshr miss rate for WriteReq accesses
system.cpu00.dcache.LoadLockedReq_mshr_miss_rate::cpu00.data     0.142857                       # mshr miss rate for LoadLockedReq accesses
system.cpu00.dcache.LoadLockedReq_mshr_miss_rate::total     0.142857                       # mshr miss rate for LoadLockedReq accesses
system.cpu00.dcache.StoreCondReq_mshr_miss_rate::cpu00.data     0.010442                       # mshr miss rate for StoreCondReq accesses
system.cpu00.dcache.StoreCondReq_mshr_miss_rate::total     0.010442                       # mshr miss rate for StoreCondReq accesses
system.cpu00.dcache.demand_mshr_miss_rate::cpu00.data     0.053881                       # mshr miss rate for demand accesses
system.cpu00.dcache.demand_mshr_miss_rate::total     0.053881                       # mshr miss rate for demand accesses
system.cpu00.dcache.overall_mshr_miss_rate::cpu00.data     0.053881                       # mshr miss rate for overall accesses
system.cpu00.dcache.overall_mshr_miss_rate::total     0.053881                       # mshr miss rate for overall accesses
system.cpu00.dcache.ReadReq_avg_mshr_miss_latency::cpu00.data 88439.249228                       # average ReadReq mshr miss latency
system.cpu00.dcache.ReadReq_avg_mshr_miss_latency::total 88439.249228                       # average ReadReq mshr miss latency
system.cpu00.dcache.WriteReq_avg_mshr_miss_latency::cpu00.data 123437.873108                       # average WriteReq mshr miss latency
system.cpu00.dcache.WriteReq_avg_mshr_miss_latency::total 123437.873108                       # average WriteReq mshr miss latency
system.cpu00.dcache.LoadLockedReq_avg_mshr_miss_latency::cpu00.data  9796.329730                       # average LoadLockedReq mshr miss latency
system.cpu00.dcache.LoadLockedReq_avg_mshr_miss_latency::total  9796.329730                       # average LoadLockedReq mshr miss latency
system.cpu00.dcache.StoreCondReq_avg_mshr_miss_latency::cpu00.data  6519.461538                       # average StoreCondReq mshr miss latency
system.cpu00.dcache.StoreCondReq_avg_mshr_miss_latency::total  6519.461538                       # average StoreCondReq mshr miss latency
system.cpu00.dcache.demand_avg_mshr_miss_latency::cpu00.data 108228.393771                       # average overall mshr miss latency
system.cpu00.dcache.demand_avg_mshr_miss_latency::total 108228.393771                       # average overall mshr miss latency
system.cpu00.dcache.overall_avg_mshr_miss_latency::cpu00.data 108228.393771                       # average overall mshr miss latency
system.cpu00.dcache.overall_avg_mshr_miss_latency::total 108228.393771                       # average overall mshr miss latency
system.cpu00.dcache.no_allocate_misses              0                       # Number of misses that were no-allocate
system.cpu00.icache.tags.replacements            7177                       # number of replacements
system.cpu00.icache.tags.tagsinuse         507.051579                       # Cycle average of tags in use
[...]
system.tol2bus.pkt_count_system.cpu06.dcache.mem_side::system.l2.cpu_side       164006                       # Packet count per connected master and slave (bytes)
system.tol2bus.pkt_count_system.cpu07.icache.mem_side::system.l2.cpu_side         1002                       # Packet count per connected master and slave (bytes)
system.tol2bus.pkt_count_system.cpu07.dcache.mem_side::system.l2.cpu_side       157705                       # Packet count per connected master and slave (bytes)
system.tol2bus.pkt_count_system.cpu08.icache.mem_side::system.l2.cpu_side          840                       # Packet count per connected master and slave (bytes)
system.tol2bus.pkt_count_system.cpu08.dcache.mem_side::system.l2.cpu_side       187455                       # Packet count per connected master and slave (bytes)
system.tol2bus.pkt_count_system.cpu09.icache.mem_side::system.l2.cpu_side          997                       # Packet count per connected master and slave (bytes)
system.tol2bus.pkt_count_system.cpu09.dcache.mem_side::system.l2.cpu_side       157350                       # Packet count per connected master and slave (bytes)
system.tol2bus.pkt_count_system.cpu10.icache.mem_side::system.l2.cpu_side          841                       # Packet count per connected master and slave (bytes)
system.tol2bus.pkt_count_system.cpu10.dcache.mem_side::system.l2.cpu_side       162488                       # Packet count per connected master and slave (bytes)
system.tol2bus.pkt_count_system.cpu11.icache.mem_side::system.l2.cpu_side          992                       # Packet count per connected master and slave (bytes)
system.tol2bus.pkt_count_system.cpu11.dcache.mem_side::system.l2.cpu_side       156751                       # Packet count per connected master and slave (bytes)
system.tol2bus.pkt_count_system.cpu12.icache.mem_side::system.l2.cpu_side         1087                       # Packet count per connected master and slave (bytes)
system.tol2bus.pkt_count_system.cpu12.dcache.mem_side::system.l2.cpu_side       174713                       # Packet count per connected master and slave (bytes)
system.tol2bus.pkt_count_system.cpu13.icache.mem_side::system.l2.cpu_side          845                       # Packet count per connected master and slave (bytes)
system.tol2bus.pkt_count_system.cpu13.dcache.mem_side::system.l2.cpu_side       156706                       # Packet count per connected master and slave (bytes)
system.tol2bus.pkt_count_system.cpu14.icache.mem_side::system.l2.cpu_side         1005                       # Packet count per connected master and slave (bytes)
system.tol2bus.pkt_count_system.cpu14.dcache.mem_side::system.l2.cpu_side       164851                       # Packet count per connected master and slave (bytes)
system.tol2bus.pkt_count_system.cpu15.icache.mem_side::system.l2.cpu_side          999                       # Packet count per connected master and slave (bytes)
system.tol2bus.pkt_count_system.cpu15.dcache.mem_side::system.l2.cpu_side       163428                       # Packet count per connected master and slave (bytes)
system.tol2bus.pkt_count::total               2694291                       # Packet count per connected master and slave (bytes)
system.tol2bus.pkt_size_system.cpu00.icache.mem_side::system.l2.cpu_side       951424                       # Cumulative packet size per connected master and slave (bytes)
system.tol2bus.pkt_size_system.cpu00.dcache.mem_side::system.l2.cpu_side      8320512                       # Cumulative packet size per connected master and slave (bytes)
system.tol2bus.pkt_size_system.cpu01.icache.mem_side::system.l2.cpu_side        37312                       # Cumulative packet size per connected master and slave (bytes)
system.tol2bus.pkt_size_system.cpu01.dcache.mem_side::system.l2.cpu_side      6339200                       # Cumulative packet size per connected master and slave (bytes)
system.tol2bus.pkt_size_system.cpu02.icache.mem_side::system.l2.cpu_side        29568                       # Cumulative packet size per connected master and slave (bytes)
system.tol2bus.pkt_size_system.cpu02.dcache.mem_side::system.l2.cpu_side      6691264                       # Cumulative packet size per connected master and slave (bytes)
system.tol2bus.pkt_size_system.cpu03.icache.mem_side::system.l2.cpu_side        34496                       # Cumulative packet size per connected master and slave (bytes)
system.tol2bus.pkt_size_system.cpu03.dcache.mem_side::system.l2.cpu_side      6460864                       # Cumulative packet size per connected master and slave (bytes)
system.tol2bus.pkt_size_system.cpu04.icache.mem_side::system.l2.cpu_side        28352                       # Cumulative packet size per connected master and slave (bytes)
system.tol2bus.pkt_size_system.cpu04.dcache.mem_side::system.l2.cpu_side      7186624                       # Cumulative packet size per connected master and slave (bytes)
system.tol2bus.pkt_size_system.cpu05.icache.mem_side::system.l2.cpu_side        34304                       # Cumulative packet size per connected master and slave (bytes)
system.tol2bus.pkt_size_system.cpu05.dcache.mem_side::system.l2.cpu_side      6485952                       # Cumulative packet size per connected master and slave (bytes)
system.tol2bus.pkt_size_system.cpu06.icache.mem_side::system.l2.cpu_side        28416                       # Cumulative packet size per connected master and slave (bytes)
system.tol2bus.pkt_size_system.cpu06.dcache.mem_side::system.l2.cpu_side      6774656                       # Cumulative packet size per connected master and slave (bytes)
system.tol2bus.pkt_size_system.cpu07.icache.mem_side::system.l2.cpu_side        34816                       # Cumulative packet size per connected master and slave (bytes)
system.tol2bus.pkt_size_system.cpu07.dcache.mem_side::system.l2.cpu_side      6471424                       # Cumulative packet size per connected master and slave (bytes)
system.tol2bus.pkt_size_system.cpu08.icache.mem_side::system.l2.cpu_side        28352                       # Cumulative packet size per connected master and slave (bytes)
system.tol2bus.pkt_size_system.cpu08.dcache.mem_side::system.l2.cpu_side      7737920                       # Cumulative packet size per connected master and slave (bytes)
system.tol2bus.pkt_size_system.cpu09.icache.mem_side::system.l2.cpu_side        34624                       # Cumulative packet size per connected master and slave (bytes)
system.tol2bus.pkt_size_system.cpu09.dcache.mem_side::system.l2.cpu_side      6510720                       # Cumulative packet size per connected master and slave (bytes)
system.tol2bus.pkt_size_system.cpu10.icache.mem_side::system.l2.cpu_side        28416                       # Cumulative packet size per connected master and slave (bytes)
system.tol2bus.pkt_size_system.cpu10.dcache.mem_side::system.l2.cpu_side      6698816                       # Cumulative packet size per connected master and slave (bytes)
system.tol2bus.pkt_size_system.cpu11.icache.mem_side::system.l2.cpu_side        34432                       # Cumulative packet size per connected master and slave (bytes)
system.tol2bus.pkt_size_system.cpu11.dcache.mem_side::system.l2.cpu_side      6458240                       # Cumulative packet size per connected master and slave (bytes)
system.tol2bus.pkt_size_system.cpu12.icache.mem_side::system.l2.cpu_side        38144                       # Cumulative packet size per connected master and slave (bytes)
system.tol2bus.pkt_size_system.cpu12.dcache.mem_side::system.l2.cpu_side      7186496                       # Cumulative packet size per connected master and slave (bytes)
system.tol2bus.pkt_size_system.cpu13.icache.mem_side::system.l2.cpu_side        28544                       # Cumulative packet size per connected master and slave (bytes)
system.tol2bus.pkt_size_system.cpu13.dcache.mem_side::system.l2.cpu_side      6472896                       # Cumulative packet size per connected master and slave (bytes)
system.tol2bus.pkt_size_system.cpu14.icache.mem_side::system.l2.cpu_side        34880                       # Cumulative packet size per connected master and slave (bytes)
system.tol2bus.pkt_size_system.cpu14.dcache.mem_side::system.l2.cpu_side      6757504                       # Cumulative packet size per connected master and slave (bytes)
system.tol2bus.pkt_size_system.cpu15.icache.mem_side::system.l2.cpu_side        34688                       # Cumulative packet size per connected master and slave (bytes)
system.tol2bus.pkt_size_system.cpu15.dcache.mem_side::system.l2.cpu_side      6756352                       # Cumulative packet size per connected master and slave (bytes)
system.tol2bus.pkt_size::total              110750208                       # Cumulative packet size per connected master and slave (bytes)
system.tol2bus.snoops                          134079                       # Total snoops (count)
system.tol2bus.snoop_fanout::samples          1034649                       # Request fanout histogram
system.tol2bus.snoop_fanout::mean            0.081135                       # Request fanout histogram
system.tol2bus.snoop_fanout::stdev           0.848162                       # Request fanout histogram
system.tol2bus.snoop_fanout::underflows             0      0.00%      0.00% # Request fanout histogram
system.tol2bus.snoop_fanout::0                1014588     98.06%     98.06% # Request fanout histogram
system.tol2bus.snoop_fanout::1                  10039      0.97%     99.03% # Request fanout histogram
system.tol2bus.snoop_fanout::2                   1631      0.16%     99.19% # Request fanout histogram
system.tol2bus.snoop_fanout::3                   1077      0.10%     99.29% # Request fanout histogram
system.tol2bus.snoop_fanout::4                    834      0.08%     99.37% # Request fanout histogram
system.tol2bus.snoop_fanout::5                    796      0.08%     99.45% # Request fanout histogram
system.tol2bus.snoop_fanout::6                    691      0.07%     99.52% # Request fanout histogram
system.tol2bus.snoop_fanout::7                    587      0.06%     99.57% # Request fanout histogram
system.tol2bus.snoop_fanout::8                    567      0.05%     99.63% # Request fanout histogram
system.tol2bus.snoop_fanout::9                    540      0.05%     99.68% # Request fanout histogram
system.tol2bus.snoop_fanout::10                   491      0.05%     99.73% # Request fanout histogram
system.tol2bus.snoop_fanout::11                   485      0.05%     99.78% # Request fanout histogram
system.tol2bus.snoop_fanout::12                   474      0.05%     99.82% # Request fanout histogram
system.tol2bus.snoop_fanout::13                   467      0.05%     99.87% # Request fanout histogram
system.tol2bus.snoop_fanout::14                   465      0.04%     99.91% # Request fanout histogram
system.tol2bus.snoop_fanout::15                   739      0.07%     99.98% # Request fanout histogram
system.tol2bus.snoop_fanout::16                   178      0.02%    100.00% # Request fanout histogram
system.tol2bus.snoop_fanout::17                     0      0.00%    100.00% # Request fanout histogram
system.tol2bus.snoop_fanout::18                     0      0.00%    100.00% # Request fanout histogram
system.tol2bus.snoop_fanout::19                     0      0.00%    100.00% # Request fanout histogram
system.tol2bus.snoop_fanout::20                     0      0.00%    100.00% # Request fanout histogram
system.tol2bus.snoop_fanout::21                     0      0.00%    100.00% # Request fanout histogram
system.tol2bus.snoop_fanout::22                     0      0.00%    100.00% # Request fanout histogram
system.tol2bus.snoop_fanout::23                     0      0.00%    100.00% # Request fanout histogram
system.tol2bus.snoop_fanout::24                     0      0.00%    100.00% # Request fanout histogram
system.tol2bus.snoop_fanout::25                     0      0.00%    100.00% # Request fanout histogram
system.tol2bus.snoop_fanout::26                     0      0.00%    100.00% # Request fanout histogram
system.tol2bus.snoop_fanout::27                     0      0.00%    100.00% # Request fanout histogram
system.tol2bus.snoop_fanout::28                     0      0.00%    100.00% # Request fanout histogram
system.tol2bus.snoop_fanout::29                     0      0.00%    100.00% # Request fanout histogram
system.tol2bus.snoop_fanout::30                     0      0.00%    100.00% # Request fanout histogram
system.tol2bus.snoop_fanout::31                     0      0.00%    100.00% # Request fanout histogram
system.tol2bus.snoop_fanout::32                     0      0.00%    100.00% # Request fanout histogram
system.tol2bus.snoop_fanout::overflows              0      0.00%    100.00% # Request fanout histogram
system.tol2bus.snoop_fanout::min_value              0                       # Request fanout histogram
system.tol2bus.snoop_fanout::max_value             16                       # Request fanout histogram
system.tol2bus.snoop_fanout::total            1034649                       # Request fanout histogram
system.tol2bus.reqLayer0.occupancy         4032311141                       # Layer occupancy (ticks)
system.tol2bus.reqLayer0.utilization             39.3                       # Layer utilization (%)
system.tol2bus.respLayer0.occupancy          27131397                       # Layer occupancy (ticks)
system.tol2bus.respLayer0.utilization             0.3                       # Layer utilization (%)
system.tol2bus.respLayer1.occupancy         243768806                       # Layer occupancy (ticks)
system.tol2bus.respLayer1.utilization             2.4                       # Layer utilization (%)
system.tol2bus.respLayer2.occupancy           1709604                       # Layer occupancy (ticks)
system.tol2bus.respLayer2.utilization             0.0                       # Layer utilization (%)
system.tol2bus.respLayer3.occupancy         182754325                       # Layer occupancy (ticks)
system.tol2bus.respLayer3.utilization             1.8                       # Layer utilization (%)
system.tol2bus.respLayer4.occupancy           1465366                       # Layer occupancy (ticks)
system.tol2bus.respLayer4.utilization             0.0                       # Layer utilization (%)
system.tol2bus.respLayer5.occupancy         190241050                       # Layer occupancy (ticks)
system.tol2bus.respLayer5.utilization             1.9                       # Layer utilization (%)
system.tol2bus.respLayer6.occupancy           1614881                       # Layer occupancy (ticks)
system.tol2bus.respLayer6.utilization             0.0                       # Layer utilization (%)
system.tol2bus.respLayer7.occupancy         183385467                       # Layer occupancy (ticks)
system.tol2bus.respLayer7.utilization             1.8                       # Layer utilization (%)
system.tol2bus.respLayer8.occupancy           1401557                       # Layer occupancy (ticks)
system.tol2bus.respLayer8.utilization             0.0                       # Layer utilization (%)
system.tol2bus.respLayer9.occupancy         204985069                       # Layer occupancy (ticks)
system.tol2bus.respLayer9.utilization             2.0                       # Layer utilization (%)
system.tol2bus.respLayer10.occupancy          1607233                       # Layer occupancy (ticks)
system.tol2bus.respLayer10.utilization            0.0                       # Layer utilization (%)
system.tol2bus.respLayer11.occupancy        183810685                       # Layer occupancy (ticks)
system.tol2bus.respLayer11.utilization            1.8                       # Layer utilization (%)
system.tol2bus.respLayer12.occupancy          1407047                       # Layer occupancy (ticks)
system.tol2bus.respLayer12.utilization            0.0                       # Layer utilization (%)
system.tol2bus.respLayer13.occupancy        192787604                       # Layer occupancy (ticks)
system.tol2bus.respLayer13.utilization            1.9                       # Layer utilization (%)
system.tol2bus.respLayer14.occupancy          1613712                       # Layer occupancy (ticks)
system.tol2bus.respLayer14.utilization            0.0                       # Layer utilization (%)
system.tol2bus.respLayer15.occupancy        185285264                       # Layer occupancy (ticks)
system.tol2bus.respLayer15.utilization            1.8                       # Layer utilization (%)
system.tol2bus.respLayer16.occupancy          1405149                       # Layer occupancy (ticks)
system.tol2bus.respLayer16.utilization            0.0                       # Layer utilization (%)
system.tol2bus.respLayer17.occupancy        220333625                       # Layer occupancy (ticks)
system.tol2bus.respLayer17.utilization            2.1                       # Layer utilization (%)
system.tol2bus.respLayer18.occupancy          1609126                       # Layer occupancy (ticks)
system.tol2bus.respLayer18.utilization            0.0                       # Layer utilization (%)
system.tol2bus.respLayer19.occupancy        184629607                       # Layer occupancy (ticks)
system.tol2bus.respLayer19.utilization            1.8                       # Layer utilization (%)
system.tol2bus.respLayer20.occupancy          1403550                       # Layer occupancy (ticks)
system.tol2bus.respLayer20.utilization            0.0                       # Layer utilization (%)
system.tol2bus.respLayer21.occupancy        191072512                       # Layer occupancy (ticks)
system.tol2bus.respLayer21.utilization            1.9                       # Layer utilization (%)
system.tol2bus.respLayer22.occupancy          1609046                       # Layer occupancy (ticks)
system.tol2bus.respLayer22.utilization            0.0                       # Layer utilization (%)
system.tol2bus.respLayer23.occupancy        184233184                       # Layer occupancy (ticks)
system.tol2bus.respLayer23.utilization            1.8                       # Layer utilization (%)
system.tol2bus.respLayer24.occupancy          1729680                       # Layer occupancy (ticks)
system.tol2bus.respLayer24.utilization            0.0                       # Layer utilization (%)
system.tol2bus.respLayer25.occupancy        205387537                       # Layer occupancy (ticks)
system.tol2bus.respLayer25.utilization            2.0                       # Layer utilization (%)
system.tol2bus.respLayer26.occupancy          1405923                       # Layer occupancy (ticks)
system.tol2bus.respLayer26.utilization            0.0                       # Layer utilization (%)
system.tol2bus.respLayer27.occupancy        184049979                       # Layer occupancy (ticks)
system.tol2bus.respLayer27.utilization            1.8                       # Layer utilization (%)
system.tol2bus.respLayer28.occupancy          1626478                       # Layer occupancy (ticks)
system.tol2bus.respLayer28.utilization            0.0                       # Layer utilization (%)
system.tol2bus.respLayer29.occupancy        193983881                       # Layer occupancy (ticks)
system.tol2bus.respLayer29.utilization            1.9                       # Layer utilization (%)
system.tol2bus.respLayer30.occupancy          1611158                       # Layer occupancy (ticks)
system.tol2bus.respLayer30.utilization            0.0                       # Layer utilization (%)
system.tol2bus.respLayer31.occupancy        191846824                       # Layer occupancy (ticks)
system.tol2bus.respLayer31.utilization            1.9                       # Layer utilization (%)

---------- End Simulation Statistics   ----------
