
---------- Begin Simulation Statistics ----------
sim_seconds                                  0.023826                       # Number of seconds simulated
sim_ticks                                 23825611269                       # Number of ticks simulated
final_tick                                23825611269                       # Number of ticks from beginning of simulation (restored from checkpoints and never reset)
sim_freq                                 1000000000000                       # Frequency of simulated ticks
host_inst_rate                                 124196                       # Simulator instruction rate (inst/s)
host_op_rate                                   124196                       # Simulator op (including micro ops) rate (op/s)
host_tick_rate                               25174140                       # Simulator tick rate (ticks/s)
host_mem_usage                                 696712                       # Number of bytes of host memory used
host_seconds                                   946.43                       # Real time elapsed on the host
sim_insts                                   117542746                       # Number of instructions simulated
sim_ops                                     117542746                       # Number of ops (including micro ops) simulated
system.voltage_domain.voltage                       1                       # Voltage in Volts
system.clk_domain.clock                          1000                       # Clock period in ticks
system.mem_ctrls.bytes_read::cpu00.inst        181696                       # Number of bytes read from this memory
system.mem_ctrls.bytes_read::cpu00.data       3210176                       # Number of bytes read from this memory
system.mem_ctrls.bytes_read::cpu01.inst         61312                       # Number of bytes read from this memory
system.mem_ctrls.bytes_read::cpu01.data       2704960                       # Number of bytes read from this memory
system.mem_ctrls.bytes_read::cpu02.inst         14528                       # Number of bytes read from this memory
system.mem_ctrls.bytes_read::cpu02.data       2572864                       # Number of bytes read from this memory
system.mem_ctrls.bytes_read::cpu03.inst         16384                       # Number of bytes read from this memory
system.mem_ctrls.bytes_read::cpu03.data       2631680                       # Number of bytes read from this memory
system.mem_ctrls.bytes_read::cpu04.inst         27456                       # Number of bytes read from this memory
system.mem_ctrls.bytes_read::cpu04.data       2768256                       # Number of bytes read from this memory
system.mem_ctrls.bytes_read::cpu05.inst         15168                       # Number of bytes read from this memory
system.mem_ctrls.bytes_read::cpu05.data       2674304                       # Number of bytes read from this memory
system.mem_ctrls.bytes_read::cpu06.inst         16640                       # Number of bytes read from this memory
system.mem_ctrls.bytes_read::cpu06.data       2580928                       # Number of bytes read from this memory
system.mem_ctrls.bytes_read::cpu07.inst         12288                       # Number of bytes read from this memory
system.mem_ctrls.bytes_read::cpu07.data       2617024                       # Number of bytes read from this memory
system.mem_ctrls.bytes_read::cpu08.inst         20608                       # Number of bytes read from this memory
system.mem_ctrls.bytes_read::cpu08.data       2737856                       # Number of bytes read from this memory
system.mem_ctrls.bytes_read::cpu09.inst         20608                       # Number of bytes read from this memory
system.mem_ctrls.bytes_read::cpu09.data       2618176                       # Number of bytes read from this memory
system.mem_ctrls.bytes_read::cpu10.inst         15296                       # Number of bytes read from this memory
system.mem_ctrls.bytes_read::cpu10.data       2623168                       # Number of bytes read from this memory
system.mem_ctrls.bytes_read::cpu11.inst         18496                       # Number of bytes read from this memory
system.mem_ctrls.bytes_read::cpu11.data       2604672                       # Number of bytes read from this memory
system.mem_ctrls.bytes_read::cpu12.inst         17088                       # Number of bytes read from this memory
system.mem_ctrls.bytes_read::cpu12.data       2734656                       # Number of bytes read from this memory
system.mem_ctrls.bytes_read::cpu13.inst         40960                       # Number of bytes read from this memory
system.mem_ctrls.bytes_read::cpu13.data       2764928                       # Number of bytes read from this memory
system.mem_ctrls.bytes_read::cpu14.inst         15360                       # Number of bytes read from this memory
system.mem_ctrls.bytes_read::cpu14.data       2594624                       # Number of bytes read from this memory
system.mem_ctrls.bytes_read::cpu15.inst         31232                       # Number of bytes read from this memory
system.mem_ctrls.bytes_read::cpu15.data       2763648                       # Number of bytes read from this memory
system.mem_ctrls.bytes_read::total           43727040                       # Number of bytes read from this memory
system.mem_ctrls.bytes_inst_read::cpu00.inst       181696                       # Number of instructions bytes read from this memory
system.mem_ctrls.bytes_inst_read::cpu01.inst        61312                       # Number of instructions bytes read from this memory
system.mem_ctrls.bytes_inst_read::cpu02.inst        14528                       # Number of instructions bytes read from this memory
system.mem_ctrls.bytes_inst_read::cpu03.inst        16384                       # Number of instructions bytes read from this memory
system.mem_ctrls.bytes_inst_read::cpu04.inst        27456                       # Number of instructions bytes read from this memory
system.mem_ctrls.bytes_inst_read::cpu05.inst        15168                       # Number of instructions bytes read from this memory
system.mem_ctrls.bytes_inst_read::cpu06.inst        16640                       # Number of instructions bytes read from this memory
system.mem_ctrls.bytes_inst_read::cpu07.inst        12288                       # Number of instructions bytes read from this memory
system.mem_ctrls.bytes_inst_read::cpu08.inst        20608                       # Number of instructions bytes read from this memory
system.mem_ctrls.bytes_inst_read::cpu09.inst        20608                       # Number of instructions bytes read from this memory
system.mem_ctrls.bytes_inst_read::cpu10.inst        15296                       # Number of instructions bytes read from this memory
system.mem_ctrls.bytes_inst_read::cpu11.inst        18496                       # Number of instructions bytes read from this memory
system.mem_ctrls.bytes_inst_read::cpu12.inst        17088                       # Number of instructions bytes read from this memory
system.mem_ctrls.bytes_inst_read::cpu13.inst        40960                       # Number of instructions bytes read from this memory
system.mem_ctrls.bytes_inst_read::cpu14.inst        15360                       # Number of instructions bytes read from this memory
system.mem_ctrls.bytes_inst_read::cpu15.inst        31232                       # Number of instructions bytes read from this memory
system.mem_ctrls.bytes_inst_read::total        525120                       # Number of instructions bytes read from this memory
system.mem_ctrls.bytes_written::writebacks     30919488                       # Number of bytes written to this memory
system.mem_ctrls.bytes_written::total        30919488                       # Number of bytes written to this memory
system.mem_ctrls.num_reads::cpu00.inst           2839                       # Number of read requests responded to by this memory
system.mem_ctrls.num_reads::cpu00.data          50159                       # Number of read requests responded to by this memory
system.mem_ctrls.num_reads::cpu01.inst            958                       # Number of read requests responded to by this memory
system.mem_ctrls.num_reads::cpu01.data          42265                       # Number of read requests responded to by this memory
system.mem_ctrls.num_reads::cpu02.inst            227                       # Number of read requests responded to by this memory
system.mem_ctrls.num_reads::cpu02.data          40201                       # Number of read requests responded to by this memory
system.mem_ctrls.num_reads::cpu03.inst            256                       # Number of read requests responded to by this memory
system.mem_ctrls.num_reads::cpu03.data          41120                       # Number of read requests responded to by this memory
system.mem_ctrls.num_reads::cpu04.inst            429                       # Number of read requests responded to by this memory
system.mem_ctrls.num_reads::cpu04.data          43254                       # Number of read requests responded to by this memory
system.mem_ctrls.num_reads::cpu05.inst            237                       # Number of read requests responded to by this memory
system.mem_ctrls.num_reads::cpu05.data          41786                       # Number of read requests responded to by this memory
system.mem_ctrls.num_reads::cpu06.inst            260                       # Number of read requests responded to by this memory
system.mem_ctrls.num_reads::cpu06.data          40327                       # Number of read requests responded to by this memory
system.mem_ctrls.num_reads::cpu07.inst            192                       # Number of read requests responded to by this memory
system.mem_ctrls.num_reads::cpu07.data          40891                       # Number of read requests responded to by this memory
system.mem_ctrls.num_reads::cpu08.inst            322                       # Number of read requests responded to by this memory
system.mem_ctrls.num_reads::cpu08.data          42779                       # Number of read requests responded to by this memory
system.mem_ctrls.num_reads::cpu09.inst            322                       # Number of read requests responded to by this memory
system.mem_ctrls.num_reads::cpu09.data          40909                       # Number of read requests responded to by this memory
system.mem_ctrls.num_reads::cpu10.inst            239                       # Number of read requests responded to by this memory
system.mem_ctrls.num_reads::cpu10.data          40987                       # Number of read requests responded to by this memory
system.mem_ctrls.num_reads::cpu11.inst            289                       # Number of read requests responded to by this memory
system.mem_ctrls.num_reads::cpu11.data          40698                       # Number of read requests responded to by this memory
system.mem_ctrls.num_reads::cpu12.inst            267                       # Number of read requests responded to by this memory
system.mem_ctrls.num_reads::cpu12.data          42729                       # Number of read requests responded to by this memory
system.mem_ctrls.num_reads::cpu13.inst            640                       # Number of read requests responded to by this memory
system.mem_ctrls.num_reads::cpu13.data          43202                       # Number of read requests responded to by this memory
system.mem_ctrls.num_reads::cpu14.inst            240                       # Number of read requests responded to by this memory
system.mem_ctrls.num_reads::cpu14.data          40541                       # Number of read requests responded to by this memory
system.mem_ctrls.num_reads::cpu15.inst            488                       # Number of read requests responded to by this memory
system.mem_ctrls.num_reads::cpu15.data          43182                       # Number of read requests responded to by this memory
system.mem_ctrls.num_reads::total              683235                       # Number of read requests responded to by this memory
system.mem_ctrls.num_writes::writebacks        483117                       # Number of write requests responded to by this memory
system.mem_ctrls.num_writes::total             483117                       # Number of write requests responded to by this memory
system.mem_ctrls.bw_read::cpu00.inst          7626079                       # Total read bandwidth from this memory (bytes/s)
system.mem_ctrls.bw_read::cpu00.data        134736354                       # Total read bandwidth from this memory (bytes/s)
system.mem_ctrls.bw_read::cpu01.inst          2573365                       # Total read bandwidth from this memory (bytes/s)
system.mem_ctrls.bw_read::cpu01.data        113531610                       # Total read bandwidth from this memory (bytes/s)
system.mem_ctrls.bw_read::cpu02.inst           609764                       # Total read bandwidth from this memory (bytes/s)
system.mem_ctrls.bw_read::cpu02.data        107987324                       # Total read bandwidth from this memory (bytes/s)
system.mem_ctrls.bw_read::cpu03.inst           687663                       # Total read bandwidth from this memory (bytes/s)
system.mem_ctrls.bw_read::cpu03.data        110455928                       # Total read bandwidth from this memory (bytes/s)
system.mem_ctrls.bw_read::cpu04.inst          1152373                       # Total read bandwidth from this memory (bytes/s)
system.mem_ctrls.bw_read::cpu04.data        116188247                       # Total read bandwidth from this memory (bytes/s)
system.mem_ctrls.bw_read::cpu05.inst           636626                       # Total read bandwidth from this memory (bytes/s)
system.mem_ctrls.bw_read::cpu05.data        112244927                       # Total read bandwidth from this memory (bytes/s)
system.mem_ctrls.bw_read::cpu06.inst           698408                       # Total read bandwidth from this memory (bytes/s)
system.mem_ctrls.bw_read::cpu06.data        108325783                       # Total read bandwidth from this memory (bytes/s)
system.mem_ctrls.bw_read::cpu07.inst           515748                       # Total read bandwidth from this memory (bytes/s)
system.mem_ctrls.bw_read::cpu07.data        109840792                       # Total read bandwidth from this memory (bytes/s)
system.mem_ctrls.bw_read::cpu08.inst           864952                       # Total read bandwidth from this memory (bytes/s)
system.mem_ctrls.bw_read::cpu08.data        114912309                       # Total read bandwidth from this memory (bytes/s)
system.mem_ctrls.bw_read::cpu09.inst           864952                       # Total read bandwidth from this memory (bytes/s)
system.mem_ctrls.bw_read::cpu09.data        109889143                       # Total read bandwidth from this memory (bytes/s)
system.mem_ctrls.bw_read::cpu10.inst           641998                       # Total read bandwidth from this memory (bytes/s)
system.mem_ctrls.bw_read::cpu10.data        110098665                       # Total read bandwidth from this memory (bytes/s)
system.mem_ctrls.bw_read::cpu11.inst           776307                       # Total read bandwidth from this memory (bytes/s)
system.mem_ctrls.bw_read::cpu11.data        109322358                       # Total read bandwidth from this memory (bytes/s)
system.mem_ctrls.bw_read::cpu12.inst           717211                       # Total read bandwidth from this memory (bytes/s)
system.mem_ctrls.bw_read::cpu12.data        114778000                       # Total read bandwidth from this memory (bytes/s)
system.mem_ctrls.bw_read::cpu13.inst          1719158                       # Total read bandwidth from this memory (bytes/s)
system.mem_ctrls.bw_read::cpu13.data        116048565                       # Total read bandwidth from this memory (bytes/s)
system.mem_ctrls.bw_read::cpu14.inst           644684                       # Total read bandwidth from this memory (bytes/s)
system.mem_ctrls.bw_read::cpu14.data        108900627                       # Total read bandwidth from this memory (bytes/s)
system.mem_ctrls.bw_read::cpu15.inst          1310858                       # Total read bandwidth from this memory (bytes/s)
system.mem_ctrls.bw_read::cpu15.data        115994841                       # Total read bandwidth from this memory (bytes/s)
system.mem_ctrls.bw_read::total            1835295620                       # Total read bandwidth from this memory (bytes/s)
system.mem_ctrls.bw_inst_read::cpu00.inst      7626079                       # Instruction read bandwidth from this memory (bytes/s)
system.mem_ctrls.bw_inst_read::cpu01.inst      2573365                       # Instruction read bandwidth from this memory (bytes/s)
system.mem_ctrls.bw_inst_read::cpu02.inst       609764                       # Instruction read bandwidth from this memory (bytes/s)
system.mem_ctrls.bw_inst_read::cpu03.inst       687663                       # Instruction read bandwidth from this memory (bytes/s)
system.mem_ctrls.bw_inst_read::cpu04.inst      1152373                       # Instruction read bandwidth from this memory (bytes/s)
system.mem_ctrls.bw_inst_read::cpu05.inst       636626                       # Instruction read bandwidth from this memory (bytes/s)
system.mem_ctrls.bw_inst_read::cpu06.inst       698408                       # Instruction read bandwidth from this memory (bytes/s)
system.mem_ctrls.bw_inst_read::cpu07.inst       515748                       # Instruction read bandwidth from this memory (bytes/s)
system.mem_ctrls.bw_inst_read::cpu08.inst       864952                       # Instruction read bandwidth from this memory (bytes/s)
system.mem_ctrls.bw_inst_read::cpu09.inst       864952                       # Instruction read bandwidth from this memory (bytes/s)
system.mem_ctrls.bw_inst_read::cpu10.inst       641998                       # Instruction read bandwidth from this memory (bytes/s)
system.mem_ctrls.bw_inst_read::cpu11.inst       776307                       # Instruction read bandwidth from this memory (bytes/s)
system.mem_ctrls.bw_inst_read::cpu12.inst       717211                       # Instruction read bandwidth from this memory (bytes/s)
system.mem_ctrls.bw_inst_read::cpu13.inst      1719158                       # Instruction read bandwidth from this memory (bytes/s)
system.mem_ctrls.bw_inst_read::cpu14.inst       644684                       # Instruction read bandwidth from this memory (bytes/s)
system.mem_ctrls.bw_inst_read::cpu15.inst      1310858                       # Instruction read bandwidth from this memory (bytes/s)
system.mem_ctrls.bw_inst_read::total         22040148                       # Instruction read bandwidth from this memory (bytes/s)
system.mem_ctrls.bw_write::writebacks      1297741647                       # Write bandwidth from this memory (bytes/s)
system.mem_ctrls.bw_write::total           1297741647                       # Write bandwidth from this memory (bytes/s)
system.mem_ctrls.bw_total::writebacks      1297741647                       # Total bandwidth to/from this memory (bytes/s)
system.mem_ctrls.bw_total::cpu00.inst         7626079                       # Total bandwidth to/from this memory (bytes/s)
system.mem_ctrls.bw_total::cpu00.data       134736354                       # Total bandwidth to/from this memory (bytes/s)
system.mem_ctrls.bw_total::cpu01.inst         2573365                       # Total bandwidth to/from this memory (bytes/s)
system.mem_ctrls.bw_total::cpu01.data       113531610                       # Total bandwidth to/from this memory (bytes/s)
system.mem_ctrls.bw_total::cpu02.inst          609764                       # Total bandwidth to/from this memory (bytes/s)
system.mem_ctrls.bw_total::cpu02.data       107987324                       # Total bandwidth to/from this memory (bytes/s)
system.mem_ctrls.bw_total::cpu03.inst          687663                       # Total bandwidth to/from this memory (bytes/s)
system.mem_ctrls.bw_total::cpu03.data       110455928                       # Total bandwidth to/from this memory (bytes/s)
system.mem_ctrls.bw_total::cpu04.inst         1152373                       # Total bandwidth to/from this memory (bytes/s)
system.mem_ctrls.bw_total::cpu04.data       116188247                       # Total bandwidth to/from this memory (bytes/s)
system.mem_ctrls.bw_total::cpu05.inst          636626                       # Total bandwidth to/from this memory (bytes/s)
system.mem_ctrls.bw_total::cpu05.data       112244927                       # Total bandwidth to/from this memory (bytes/s)
system.mem_ctrls.bw_total::cpu06.inst          698408                       # Total bandwidth to/from this memory (bytes/s)
system.mem_ctrls.bw_total::cpu06.data       108325783                       # Total bandwidth to/from this memory (bytes/s)
system.mem_ctrls.bw_total::cpu07.inst          515748                       # Total bandwidth to/from this memory (bytes/s)
system.mem_ctrls.bw_total::cpu07.data       109840792                       # Total bandwidth to/from this memory (bytes/s)
system.mem_ctrls.bw_total::cpu08.inst          864952                       # Total bandwidth to/from this memory (bytes/s)
system.mem_ctrls.bw_total::cpu08.data       114912309                       # Total bandwidth to/from this memory (bytes/s)
system.mem_ctrls.bw_total::cpu09.inst          864952                       # Total bandwidth to/from this memory (bytes/s)
system.mem_ctrls.bw_total::cpu09.data       109889143                       # Total bandwidth to/from this memory (bytes/s)
system.mem_ctrls.bw_total::cpu10.inst          641998                       # Total bandwidth to/from this memory (bytes/s)
system.mem_ctrls.bw_total::cpu10.data       110098665                       # Total bandwidth to/from this memory (bytes/s)
system.mem_ctrls.bw_total::cpu11.inst          776307                       # Total bandwidth to/from this memory (bytes/s)
system.mem_ctrls.bw_total::cpu11.data       109322358                       # Total bandwidth to/from this memory (bytes/s)
system.mem_ctrls.bw_total::cpu12.inst          717211                       # Total bandwidth to/from this memory (bytes/s)
system.mem_ctrls.bw_total::cpu12.data       114778000                       # Total bandwidth to/from this memory (bytes/s)
system.mem_ctrls.bw_total::cpu13.inst         1719158                       # Total bandwidth to/from this memory (bytes/s)
system.mem_ctrls.bw_total::cpu13.data       116048565                       # Total bandwidth to/from this memory (bytes/s)
system.mem_ctrls.bw_total::cpu14.inst          644684                       # Total bandwidth to/from this memory (bytes/s)
system.mem_ctrls.bw_total::cpu14.data       108900627                       # Total bandwidth to/from this memory (bytes/s)
system.mem_ctrls.bw_total::cpu15.inst         1310858                       # Total bandwidth to/from this memory (bytes/s)
system.mem_ctrls.bw_total::cpu15.data       115994841                       # Total bandwidth to/from this memory (bytes/s)
system.mem_ctrls.bw_total::total           3133037266                       # Total bandwidth to/from this memory (bytes/s)
system.cpu00.branchPred.lookups                583406                       # Number of BP lookups
system.cpu00.branchPred.condPredicted          467966                       # Number of conditional branches predicted
system.cpu00.branchPred.condIncorrect           11304                       # Number of conditional branches incorrect
system.cpu00.branchPred.BTBLookups             387920                       # Number of BTB lookups
system.cpu00.branchPred.BTBHits                272875                       # Number of BTB hits
system.cpu00.branchPred.BTBCorrect                  0                       # Number of correct BTB predictions (this stat may not work properly.
system.cpu00.branchPred.BTBHitPct           70.343112                       # BTB Hit Percentage
system.cpu00.branchPred.usedRAS                 45288                       # Number of times the RAS was used to get a target.
system.cpu00.branchPred.RASInCorrect               82                       # Number of incorrect RAS predictions.
system.cpu00.branchPred.indirectLookups          8840                       # Number of indirect predictor lookups.
system.cpu00.branchPred.indirectHits             7980                       # Number of indirect target hits.
system.cpu00.branchPred.indirectMisses            860                       # Number of indirect misses.
system.cpu00.branchPredindirectMispredicted          261                       # Number of mispredicted indirect branches.
system.cpu_voltage_domain.voltage                   1                       # Voltage in Volts
system.cpu_clk_domain.clock                      1161                       # Clock period in ticks
system.cpu00.dtb.fetch_hits                         0                       # ITB hits
system.cpu00.dtb.fetch_misses                       0                       # ITB misses
system.cpu00.dtb.fetch_acv                          0                       # ITB acv
system.cpu00.dtb.fetch_accesses                     0                       # ITB accesses
system.cpu00.dtb.read_hits                    5863948                       # DTB read hits
system.cpu00.dtb.read_misses                     8544                       # DTB read misses
system.cpu00.dtb.read_acv                           5                       # DTB read access violations
system.cpu00.dtb.read_accesses                5872492                       # DTB read accesses
system.cpu00.dtb.write_hits                    649895                       # DTB write hits
system.cpu00.dtb.write_misses                   10176                       # DTB write misses
system.cpu00.dtb.write_acv                          0                       # DTB write access violations
system.cpu00.dtb.write_accesses                660071                       # DTB write accesses
system.cpu00.dtb.data_hits                    6513843                       # DTB hits
system.cpu00.dtb.data_misses                    18720                       # DTB misses
system.cpu00.dtb.data_acv                           5                       # DTB access violations
system.cpu00.dtb.data_accesses                6532563                       # DTB accesses
system.cpu00.itb.fetch_hits                    840318                       # ITB hits
system.cpu00.itb.fetch_misses                     246                       # ITB misses
system.cpu00.itb.fetch_acv                          0                       # ITB acv
system.cpu00.itb.fetch_accesses                840564                       # ITB accesses
system.cpu00.itb.read_hits                          0                       # DTB read hits
system.cpu00.itb.read_misses                        0                       # DTB read misses
system.cpu00.itb.read_acv                           0                       # DTB read access violations
system.cpu00.itb.read_accesses                      0                       # DTB read accesses
system.cpu00.itb.write_hits                         0                       # DTB write hits
system.cpu00.itb.write_misses                       0                       # DTB write misses
system.cpu00.itb.write_acv                          0                       # DTB write access violations
system.cpu00.itb.write_accesses                     0                       # DTB write accesses
system.cpu00.itb.data_hits                          0                       # DTB hits
system.cpu00.itb.data_misses                        0                       # DTB misses
system.cpu00.itb.data_acv                           0                       # DTB access violations
system.cpu00.itb.data_accesses                      0                       # DTB accesses
system.cpu00.workload.num_syscalls              66234                       # Number of system calls
system.cpu00.numCycles                       19508518                       # number of cpu cycles simulated
system.cpu00.numWorkItemsStarted                    0                       # number of work items this cpu started
system.cpu00.numWorkItemsCompleted                  0                       # number of work items this cpu completed
system.cpu00.fetch.icacheStallCycles           217610                       # Number of cycles fetch is stalled on an Icache miss
system.cpu00.fetch.Insts                      9331156                       # Number of instructions fetch has processed
system.cpu00.fetch.Branches                    583406                       # Number of branches that fetch encountered
system.cpu00.fetch.predictedBranches           326143                       # Number of branches that fetch has predicted taken
system.cpu00.fetch.Cycles                    18819842                       # Number of cycles fetch has run and was not squashing or blocked
system.cpu00.fetch.SquashCycles                 29800                       # Number of cycles fetch has spent squashing
system.cpu00.fetch.TlbCycles                       47                       # Number of cycles fetch has spent waiting for tlb
system.cpu00.fetch.MiscStallCycles                941                       # Number of cycles fetch has spent waiting on interrupts, or bad addresses, or out of MSHRs
system.cpu00.fetch.PendingTrapStallCycles        10010                       # Number of stall cycles due to pending traps
system.cpu00.fetch.IcacheWaitRetryStallCycles         2020                       # Number of stall cycles due to full MSHR
system.cpu00.fetch.CacheLines                  840318                       # Number of cache lines fetched
system.cpu00.fetch.IcacheSquashes                3812                       # Number of outstanding Icache misses that were squashed
system.cpu00.fetch.rateDist::samples         19065370                       # Number of instructions fetched each cycle (Total)
system.cpu00.fetch.rateDist::mean            0.489430                       # Number of instructions fetched each cycle (Total)
system.cpu00.fetch.rateDist::stdev           1.769749                       # Number of instructions fetched each cycle (Total)
system.cpu00.fetch.rateDist::underflows             0      0.00%      0.00% # Number of instructions fetched each cycle (Total)
system.cpu00.fetch.rateDist::0               17459655     91.58%     91.58% # Number of instructions fetched each cycle (Total)
system.cpu00.fetch.rateDist::1                 121388      0.64%     92.21% # Number of instructions fetched each cycle (Total)
system.cpu00.fetch.rateDist::2                 131760      0.69%     92.91% # Number of instructions fetched each cycle (Total)
system.cpu00.fetch.rateDist::3                 121131      0.64%     93.54% # Number of instructions fetched each cycle (Total)
system.cpu00.fetch.rateDist::4                 157377      0.83%     94.37% # Number of instructions fetched each cycle (Total)
system.cpu00.fetch.rateDist::5                 109078      0.57%     94.94% # Number of instructions fetched each cycle (Total)
system.cpu00.fetch.rateDist::6                 107946      0.57%     95.50% # Number of instructions fetched each cycle (Total)
system.cpu00.fetch.rateDist::7                  95999      0.50%     96.01% # Number of instructions fetched each cycle (Total)
system.cpu00.fetch.rateDist::8                 761036      3.99%    100.00% # Number of instructions fetched each cycle (Total)
system.cpu00.fetch.rateDist::overflows              0      0.00%    100.00% # Number of instructions fetched each cycle (Total)
system.cpu00.fetch.rateDist::min_value              0                       # Number of instructions fetched each cycle (Total)
system.cpu00.fetch.rateDist::max_value              8                       # Number of instructions fetched each cycle (Total)
system.cpu00.fetch.rateDist::total           19065370                       # Number of instructions fetched each cycle (Total)
system.cpu00.fetch.branchRate                0.029905                       # Number of branch fetches per cycle
system.cpu00.fetch.rate                      0.478312                       # Number of inst fetches per cycle
system.cpu00.decode.IdleCycles                 389202                       # Number of cycles decode is idle
system.cpu00.decode.BlockedCycles            17493236                       # Number of cycles decode is blocked
system.cpu00.decode.RunCycles                  620937                       # Number of cycles decode is running
system.cpu00.decode.UnblockCycles              549652                       # Number of cycles decode is unblocking
system.cpu00.decode.SquashCycles                12343                       # Number of cycles decode is squashing
system.cpu00.decode.BranchResolved              54992                       # Number of times decode resolved a branch
system.cpu00.decode.BranchMispred                2624                       # Number of times decode detected a branch misprediction
system.cpu00.decode.DecodedInsts              9028469                       # Number of instructions handled by decode
system.cpu00.decode.SquashedInsts               10395                       # Number of squashed instructions handled by decode
system.cpu00.rename.SquashCycles                12343                       # Number of cycles rename is squashing
system.cpu00.rename.IdleCycles                 578752                       # Number of cycles rename is idle
system.cpu00.rename.BlockCycles              11535646                       # Number of cycles rename is blocking
system.cpu00.rename.serializeStallCycles       806303                       # count of cycles rename stalled for serializing inst
system.cpu00.rename.RunCycles                  915054                       # Number of cycles rename is running
system.cpu00.rename.UnblockCycles             5217272                       # Number of cycles rename is unblocking
system.cpu00.rename.RenamedInsts              8955554                       # Number of instructions processed by rename
system.cpu00.rename.ROBFullEvents                4764                       # Number of times rename has blocked due to ROB full
system.cpu00.rename.IQFullEvents              1471907                       # Number of times rename has blocked due to IQ full
system.cpu00.rename.LQFullEvents              2787725                       # Number of times rename has blocked due to LQ full
system.cpu00.rename.SQFullEvents              1323935                       # Number of times rename has blocked due to SQ full
system.cpu00.rename.RenamedOperands           7171166                       # Number of destination operands rename has renamed
system.cpu00.rename.RenameLookups            13248257                       # Number of register rename lookups that rename has made
system.cpu00.rename.int_rename_lookups        6922996                       # Number of integer rename lookups
system.cpu00.rename.fp_rename_lookups         6323890                       # Number of floating rename lookups
system.cpu00.rename.CommittedMaps             6841022                       # Number of HB maps that are committed
system.cpu00.rename.UndoneMaps                 330144                       # Number of HB maps that are undone due to squashing
system.cpu00.rename.serializingInsts            14419                       # count of serializing insts renamed
system.cpu00.rename.tempSerializingInsts        12974                       # count of temporary serializing insts renamed
system.cpu00.rename.skidInsts                 3373678                       # count of insts added to the skid buffer
system.cpu00.memDep0.insertedLoads            2316836                       # Number of loads inserted to the mem dependence unit.
system.cpu00.memDep0.insertedStores            690419                       # Number of stores inserted to the mem dependence unit.
system.cpu00.memDep0.conflictingLoads           93876                       # Number of conflicting loads.
system.cpu00.memDep0.conflictingStores          74730                       # Number of conflicting stores.
system.cpu00.iq.iqInstsAdded                  8736505                       # Number of instructions added to the IQ (excludes non-spec)
system.cpu00.iq.iqNonSpecInstsAdded             19484                       # Number of non-speculative instructions added to the IQ
system.cpu00.iq.iqInstsIssued                12212724                       # Number of instructions issued
system.cpu00.iq.iqSquashedInstsIssued            8970                       # Number of squashed instructions issued
system.cpu00.iq.iqSquashedInstsExamined        416325                       # Number of squashed instructions iterated over during squash; mainly for profiling
system.cpu00.iq.iqSquashedOperandsExamined       248754                       # Number of squashed operands that are examined and possibly removed from graph
system.cpu00.iq.iqSquashedNonSpecRemoved         2599                       # Number of squashed non-spec instructions that were removed
system.cpu00.iq.issued_per_cycle::samples     19065370                       # Number of insts issued each cycle
system.cpu00.iq.issued_per_cycle::mean       0.640571                       # Number of insts issued each cycle
system.cpu00.iq.issued_per_cycle::stdev      1.479955                       # Number of insts issued each cycle
system.cpu00.iq.issued_per_cycle::underflows            0      0.00%      0.00% # Number of insts issued each cycle
system.cpu00.iq.issued_per_cycle::0          14869979     77.99%     77.99% # Number of insts issued each cycle
system.cpu00.iq.issued_per_cycle::1           1334895      7.00%     85.00% # Number of insts issued each cycle
system.cpu00.iq.issued_per_cycle::2            756570      3.97%     88.96% # Number of insts issued each cycle
system.cpu00.iq.issued_per_cycle::3            423419      2.22%     91.19% # Number of insts issued each cycle
system.cpu00.iq.issued_per_cycle::4            987474      5.18%     96.36% # Number of insts issued each cycle
system.cpu00.iq.issued_per_cycle::5            316280      1.66%     98.02% # Number of insts issued each cycle
system.cpu00.iq.issued_per_cycle::6            176981      0.93%     98.95% # Number of insts issued each cycle
system.cpu00.iq.issued_per_cycle::7             96926      0.51%     99.46% # Number of insts issued each cycle
system.cpu00.iq.issued_per_cycle::8            102846      0.54%    100.00% # Number of insts issued each cycle
system.cpu00.iq.issued_per_cycle::overflows            0      0.00%    100.00% # Number of insts issued each cycle
system.cpu00.iq.issued_per_cycle::min_value            0                       # Number of insts issued each cycle
system.cpu00.iq.issued_per_cycle::max_value            8                       # Number of insts issued each cycle
system.cpu00.iq.issued_per_cycle::total      19065370                       # Number of insts issued each cycle
system.cpu00.iq.fu_full::No_OpClass                 0      0.00%      0.00% # attempts to use FU when none available
system.cpu00.iq.fu_full::IntAlu                 10086      0.97%      0.97% # attempts to use FU when none available
system.cpu00.iq.fu_full::IntMult                    0      0.00%      0.97% # attempts to use FU when none available
system.cpu00.iq.fu_full::IntDiv                     0      0.00%      0.97% # attempts to use FU when none available
system.cpu00.iq.fu_full::FloatAdd               56093      5.39%      6.36% # attempts to use FU when none available
system.cpu00.iq.fu_full::FloatCmp                   0      0.00%      6.36% # attempts to use FU when none available
system.cpu00.iq.fu_full::FloatCvt                   0      0.00%      6.36% # attempts to use FU when none available
system.cpu00.iq.fu_full::FloatMult              92105      8.85%     15.21% # attempts to use FU when none available
system.cpu00.iq.fu_full::FloatDiv                  42      0.00%     15.21% # attempts to use FU when none available
system.cpu00.iq.fu_full::FloatSqrt                  0      0.00%     15.21% # attempts to use FU when none available
system.cpu00.iq.fu_full::SimdAdd                    0      0.00%     15.21% # attempts to use FU when none available
system.cpu00.iq.fu_full::SimdAddAcc                 0      0.00%     15.21% # attempts to use FU when none available
system.cpu00.iq.fu_full::SimdAlu                    0      0.00%     15.21% # attempts to use FU when none available
system.cpu00.iq.fu_full::SimdCmp                    0      0.00%     15.21% # attempts to use FU when none available
system.cpu00.iq.fu_full::SimdCvt                    0      0.00%     15.21% # attempts to use FU when none available
system.cpu00.iq.fu_full::SimdMisc                   0      0.00%     15.21% # attempts to use FU when none available
system.cpu00.iq.fu_full::SimdMult                   0      0.00%     15.21% # attempts to use FU when none available
system.cpu00.iq.fu_full::SimdMultAcc                0      0.00%     15.21% # attempts to use FU when none available
system.cpu00.iq.fu_full::SimdShift                  0      0.00%     15.21% # attempts to use FU when none available
system.cpu00.iq.fu_full::SimdShiftAcc               0      0.00%     15.21% # attempts to use FU when none available
system.cpu00.iq.fu_full::SimdSqrt                   0      0.00%     15.21% # attempts to use FU when none available
system.cpu00.iq.fu_full::SimdFloatAdd               0      0.00%     15.21% # attempts to use FU when none available
system.cpu00.iq.fu_full::SimdFloatAlu               0      0.00%     15.21% # attempts to use FU when none available
system.cpu00.iq.fu_full::SimdFloatCmp               0      0.00%     15.21% # attempts to use FU when none available
system.cpu00.iq.fu_full::SimdFloatCvt               0      0.00%     15.21% # attempts to use FU when none available
system.cpu00.iq.fu_full::SimdFloatDiv               0      0.00%     15.21% # attempts to use FU when none available
system.cpu00.iq.fu_full::SimdFloatMisc              0      0.00%     15.21% # attempts to use FU when none available
system.cpu00.iq.fu_full::SimdFloatMult              0      0.00%     15.21% # attempts to use FU when none available
system.cpu00.iq.fu_full::SimdFloatMultAcc            0      0.00%     15.21% # attempts to use FU when none available
system.cpu00.iq.fu_full::SimdFloatSqrt              0      0.00%     15.21% # attempts to use FU when none available
system.cpu00.iq.fu_full::MemRead               858118     82.45%     97.66% # attempts to use FU when none available
system.cpu00.iq.fu_full::MemWrite               24340      2.34%    100.00% # attempts to use FU when none available
system.cpu00.iq.fu_full::IprAccess                  0      0.00%    100.00% # attempts to use FU when none available
system.cpu00.iq.fu_full::InstPrefetch               0      0.00%    100.00% # attempts to use FU when none available
system.cpu00.iq.FU_type_0::No_OpClass               0      0.00%      0.00% # Type of FU issued
system.cpu00.iq.FU_type_0::IntAlu             2662789     21.80%     21.80% # Type of FU issued
system.cpu00.iq.FU_type_0::IntMult                905      0.01%     21.81% # Type of FU issued
system.cpu00.iq.FU_type_0::IntDiv                   0      0.00%     21.81% # Type of FU issued
system.cpu00.iq.FU_type_0::FloatAdd           2140163     17.52%     39.33% # Type of FU issued
system.cpu00.iq.FU_type_0::FloatCmp            114812      0.94%     40.27% # Type of FU issued
system.cpu00.iq.FU_type_0::FloatCvt                 0      0.00%     40.27% # Type of FU issued
system.cpu00.iq.FU_type_0::FloatMult           738356      6.05%     46.32% # Type of FU issued
system.cpu00.iq.FU_type_0::FloatDiv              9051      0.07%     46.39% # Type of FU issued
system.cpu00.iq.FU_type_0::FloatSqrt                0      0.00%     46.39% # Type of FU issued
system.cpu00.iq.FU_type_0::SimdAdd                  0      0.00%     46.39% # Type of FU issued
system.cpu00.iq.FU_type_0::SimdAddAcc               0      0.00%     46.39% # Type of FU issued
system.cpu00.iq.FU_type_0::SimdAlu                  0      0.00%     46.39% # Type of FU issued
system.cpu00.iq.FU_type_0::SimdCmp                  0      0.00%     46.39% # Type of FU issued
system.cpu00.iq.FU_type_0::SimdCvt                  0      0.00%     46.39% # Type of FU issued
system.cpu00.iq.FU_type_0::SimdMisc                 0      0.00%     46.39% # Type of FU issued
system.cpu00.iq.FU_type_0::SimdMult                 0      0.00%     46.39% # Type of FU issued
system.cpu00.iq.FU_type_0::SimdMultAcc              0      0.00%     46.39% # Type of FU issued
system.cpu00.iq.FU_type_0::SimdShift                0      0.00%     46.39% # Type of FU issued
system.cpu00.iq.FU_type_0::SimdShiftAcc             0      0.00%     46.39% # Type of FU issued
system.cpu00.iq.FU_type_0::SimdSqrt                 0      0.00%     46.39% # Type of FU issued
system.cpu00.iq.FU_type_0::SimdFloatAdd             0      0.00%     46.39% # Type of FU issued
system.cpu00.iq.FU_type_0::SimdFloatAlu             0      0.00%     46.39% # Type of FU issued
system.cpu00.iq.FU_type_0::SimdFloatCmp             0      0.00%     46.39% # Type of FU issued
system.cpu00.iq.FU_type_0::SimdFloatCvt             0      0.00%     46.39% # Type of FU issued
system.cpu00.iq.FU_type_0::SimdFloatDiv             0      0.00%     46.39% # Type of FU issued
system.cpu00.iq.FU_type_0::SimdFloatMisc            0      0.00%     46.39% # Type of FU issued
system.cpu00.iq.FU_type_0::SimdFloatMult            0      0.00%     46.39% # Type of FU issued
system.cpu00.iq.FU_type_0::SimdFloatMultAcc            0      0.00%     46.39% # Type of FU issued
system.cpu00.iq.FU_type_0::SimdFloatSqrt            0      0.00%     46.39% # Type of FU issued
system.cpu00.iq.FU_type_0::MemRead            5883970     48.18%     94.57% # Type of FU issued
system.cpu00.iq.FU_type_0::MemWrite            662678      5.43%    100.00% # Type of FU issued
system.cpu00.iq.FU_type_0::IprAccess                0      0.00%    100.00% # Type of FU issued
system.cpu00.iq.FU_type_0::InstPrefetch             0      0.00%    100.00% # Type of FU issued
system.cpu00.iq.FU_type_0::total             12212724                       # Type of FU issued
system.cpu00.iq.rate                         0.626020                       # Inst issue rate
system.cpu00.iq.fu_busy_cnt                   1040784                       # FU busy when requested
system.cpu00.iq.fu_busy_rate                 0.085221                       # FU busy rate (busy events/executed inst)
system.cpu00.iq.int_inst_queue_reads         27081958                       # Number of integer instruction queue reads
system.cpu00.iq.int_inst_queue_writes         3802406                       # Number of integer instruction queue writes
system.cpu00.iq.int_inst_queue_wakeup_accesses      3301534                       # Number of integer instruction queue wakeup accesses
system.cpu00.iq.fp_inst_queue_reads          17458614                       # Number of floating instruction queue reads
system.cpu00.iq.fp_inst_queue_writes          5371640                       # Number of floating instruction queue writes
system.cpu00.iq.fp_inst_queue_wakeup_accesses      5272091                       # Number of floating instruction queue wakeup accesses
system.cpu00.iq.int_alu_accesses              4091121                       # Number of integer alu accesses
system.cpu00.iq.fp_alu_accesses               9162387                       # Number of floating point alu accesses
system.cpu00.iew.lsq.thread0.forwLoads          37373                       # Number of loads that had data forwarded from stores
system.cpu00.iew.lsq.thread0.invAddrLoads            0                       # Number of loads ignored due to an invalid address
system.cpu00.iew.lsq.thread0.squashedLoads        95758                       # Number of loads squashed
system.cpu00.iew.lsq.thread0.ignoredResponses          187                       # Number of memory responses ignored because the instruction is squashed
system.cpu00.iew.lsq.thread0.memOrderViolation         1763                       # Number of memory ordering violations
system.cpu00.iew.lsq.thread0.squashedStores        64503                       # Number of stores squashed
system.cpu00.iew.lsq.thread0.invAddrSwpfs            0                       # Number of software prefetches ignored due to an invalid address
system.cpu00.iew.lsq.thread0.blockedLoads            0                       # Number of blocked loads due to partial load-store forwarding
system.cpu00.iew.lsq.thread0.rescheduledLoads         1084                       # Number of loads that were rescheduled
system.cpu00.iew.lsq.thread0.cacheBlocked      3711496                       # Number of times an access to memory failed due to the cache being blocked
system.cpu00.iew.iewIdleCycles                      0                       # Number of cycles IEW is idle
system.cpu00.iew.iewSquashCycles                12343                       # Number of cycles IEW is squashing
system.cpu00.iew.iewBlockCycles               6961751                       # Number of cycles IEW is blocking
system.cpu00.iew.iewUnblockCycles             3657414                       # Number of cycles IEW is unblocking
system.cpu00.iew.iewDispatchedInsts           8899753                       # Number of instructions dispatched to IQ
system.cpu00.iew.iewDispSquashedInsts            2118                       # Number of squashed instructions skipped by dispatch
system.cpu00.iew.iewDispLoadInsts             2316836                       # Number of dispatched load instructions
system.cpu00.iew.iewDispStoreInsts             690419                       # Number of dispatched store instructions
system.cpu00.iew.iewDispNonSpecInsts            12765                       # Number of dispatched non-speculative instructions
system.cpu00.iew.iewIQFullEvents               119562                       # Number of times the IQ has become full, causing a stall
system.cpu00.iew.iewLSQFullEvents             3423520                       # Number of times the LSQ has become full, causing a stall
system.cpu00.iew.memOrderViolationEvents         1763                       # Number of memory order violations
system.cpu00.iew.predictedTakenIncorrect         4194                       # Number of branches that were predicted taken incorrectly
system.cpu00.iew.predictedNotTakenIncorrect         5811                       # Number of branches that were predicted not taken incorrectly
system.cpu00.iew.branchMispredicts              10005                       # Number of branch mispredicts detected at execute
system.cpu00.iew.iewExecutedInsts            12196185                       # Number of executed instructions
system.cpu00.iew.iewExecLoadInsts             5872534                       # Number of load instructions executed
system.cpu00.iew.iewExecSquashedInsts           16539                       # Number of squashed instructions skipped in execute
system.cpu00.iew.exec_swp                           0                       # number of swp insts executed
system.cpu00.iew.exec_nop                      143764                       # number of nop insts executed
system.cpu00.iew.exec_refs                    6532623                       # number of memory reference insts executed
system.cpu00.iew.exec_branches                 499509                       # Number of branches executed
system.cpu00.iew.exec_stores                   660089                       # Number of stores executed
system.cpu00.iew.exec_rate                   0.625172                       # Inst execution rate
system.cpu00.iew.wb_sent                      8596715                       # cumulative count of insts sent to commit
system.cpu00.iew.wb_count                     8573625                       # cumulative count of insts written-back
system.cpu00.iew.wb_producers                 5816291                       # num instructions producing a value
system.cpu00.iew.wb_consumers                 7330637                       # num instructions consuming a value
system.cpu00.iew.wb_rate                     0.439481                       # insts written-back per cycle
system.cpu00.iew.wb_fanout                   0.793422                       # average fanout of values written-back
system.cpu00.commit.commitSquashedInsts        417991                       # The number of squashed insts skipped by commit
system.cpu00.commit.commitNonSpecStalls         16885                       # The number of times commit has been forced to stall to communicate backwards
system.cpu00.commit.branchMispredicts            8747                       # The number of times a branch was mispredicted
system.cpu00.commit.committed_per_cycle::samples     19002072                       # Number of insts commited each cycle
system.cpu00.commit.committed_per_cycle::mean     0.445706                       # Number of insts commited each cycle
system.cpu00.commit.committed_per_cycle::stdev     1.606784                       # Number of insts commited each cycle
system.cpu00.commit.committed_per_cycle::underflows            0      0.00%      0.00% # Number of insts commited each cycle
system.cpu00.commit.committed_per_cycle::0     17086244     89.92%     89.92% # Number of insts commited each cycle
system.cpu00.commit.committed_per_cycle::1       424302      2.23%     92.15% # Number of insts commited each cycle
system.cpu00.commit.committed_per_cycle::2       295995      1.56%     93.71% # Number of insts commited each cycle
system.cpu00.commit.committed_per_cycle::3       195924      1.03%     94.74% # Number of insts commited each cycle
system.cpu00.commit.committed_per_cycle::4       137108      0.72%     95.46% # Number of insts commited each cycle
system.cpu00.commit.committed_per_cycle::5       105797      0.56%     96.02% # Number of insts commited each cycle
system.cpu00.commit.committed_per_cycle::6        90331      0.48%     96.49% # Number of insts commited each cycle
system.cpu00.commit.committed_per_cycle::7        85093      0.45%     96.94% # Number of insts commited each cycle
system.cpu00.commit.committed_per_cycle::8       581278      3.06%    100.00% # Number of insts commited each cycle
system.cpu00.commit.committed_per_cycle::overflows            0      0.00%    100.00% # Number of insts commited each cycle
system.cpu00.commit.committed_per_cycle::min_value            0                       # Number of insts commited each cycle
system.cpu00.commit.committed_per_cycle::max_value            8                       # Number of insts commited each cycle
system.cpu00.commit.committed_per_cycle::total     19002072                       # Number of insts commited each cycle
system.cpu00.commit.committedInsts            8469342                       # Number of instructions committed
system.cpu00.commit.committedOps              8469342                       # Number of ops (including micro ops) committed
system.cpu00.commit.swp_count                       0                       # Number of s/w prefetches committed
system.cpu00.commit.refs                      2846994                       # Number of memory references committed
system.cpu00.commit.loads                     2221078                       # Number of loads committed
system.cpu00.commit.membars                      5497                       # Number of memory barriers committed
system.cpu00.commit.branches                   465808                       # Number of branches committed
system.cpu00.commit.fp_insts                  5254312                       # Number of committed floating point instructions.
system.cpu00.commit.int_insts                 5444032                       # Number of committed integer instructions.
system.cpu00.commit.function_calls              33957                       # Number of function calls committed.
system.cpu00.commit.op_class_0::No_OpClass       129679      1.53%      1.53% # Class of committed instruction
system.cpu00.commit.op_class_0::IntAlu        2495141     29.46%     30.99% # Class of committed instruction
system.cpu00.commit.op_class_0::IntMult           772      0.01%     31.00% # Class of committed instruction
system.cpu00.commit.op_class_0::IntDiv              0      0.00%     31.00% # Class of committed instruction
system.cpu00.commit.op_class_0::FloatAdd      2131333     25.17%     56.17% # Class of committed instruction
system.cpu00.commit.op_class_0::FloatCmp       114742      1.35%     57.52% # Class of committed instruction
system.cpu00.commit.op_class_0::FloatCvt            0      0.00%     57.52% # Class of committed instruction
system.cpu00.commit.op_class_0::FloatMult       736169      8.69%     66.21% # Class of committed instruction
system.cpu00.commit.op_class_0::FloatDiv         9014      0.11%     66.32% # Class of committed instruction
system.cpu00.commit.op_class_0::FloatSqrt            0      0.00%     66.32% # Class of committed instruction
system.cpu00.commit.op_class_0::SimdAdd             0      0.00%     66.32% # Class of committed instruction
system.cpu00.commit.op_class_0::SimdAddAcc            0      0.00%     66.32% # Class of committed instruction
system.cpu00.commit.op_class_0::SimdAlu             0      0.00%     66.32% # Class of committed instruction
system.cpu00.commit.op_class_0::SimdCmp             0      0.00%     66.32% # Class of committed instruction
system.cpu00.commit.op_class_0::SimdCvt             0      0.00%     66.32% # Class of committed instruction
system.cpu00.commit.op_class_0::SimdMisc            0      0.00%     66.32% # Class of committed instruction
system.cpu00.commit.op_class_0::SimdMult            0      0.00%     66.32% # Class of committed instruction
system.cpu00.commit.op_class_0::SimdMultAcc            0      0.00%     66.32% # Class of committed instruction
system.cpu00.commit.op_class_0::SimdShift            0      0.00%     66.32% # Class of committed instruction
system.cpu00.commit.op_class_0::SimdShiftAcc            0      0.00%     66.32% # Class of committed instruction
system.cpu00.commit.op_class_0::SimdSqrt            0      0.00%     66.32% # Class of committed instruction
system.cpu00.commit.op_class_0::SimdFloatAdd            0      0.00%     66.32% # Class of committed instruction
system.cpu00.commit.op_class_0::SimdFloatAlu            0      0.00%     66.32% # Class of committed instruction
system.cpu00.commit.op_class_0::SimdFloatCmp            0      0.00%     66.32% # Class of committed instruction
system.cpu00.commit.op_class_0::SimdFloatCvt            0      0.00%     66.32% # Class of committed instruction
system.cpu00.commit.op_class_0::SimdFloatDiv            0      0.00%     66.32% # Class of committed instruction
system.cpu00.commit.op_class_0::SimdFloatMisc            0      0.00%     66.32% # Class of committed instruction
system.cpu00.commit.op_class_0::SimdFloatMult            0      0.00%     66.32% # Class of committed instruction
system.cpu00.commit.op_class_0::SimdFloatMultAcc            0      0.00%     66.32% # Class of committed instruction
system.cpu00.commit.op_class_0::SimdFloatSqrt            0      0.00%     66.32% # Class of committed instruction
system.cpu00.commit.op_class_0::MemRead       2226575     26.29%     92.61% # Class of committed instruction
system.cpu00.commit.op_class_0::MemWrite       625917      7.39%    100.00% # Class of committed instruction
system.cpu00.commit.op_class_0::IprAccess            0      0.00%    100.00% # Class of committed instruction
system.cpu00.commit.op_class_0::InstPrefetch            0      0.00%    100.00% # Class of committed instruction
system.cpu00.commit.op_class_0::total         8469342                       # Class of committed instruction
system.cpu00.commit.bw_lim_events              581278                       # number cycles where commit BW limit reached
system.cpu00.rob.rob_reads                   27274613                       # The number of ROB reads
system.cpu00.rob.rob_writes                  17835409                       # The number of ROB writes
system.cpu00.timesIdled                          9555                       # Number of times that the entire CPU went into an idle state and unscheduled itself
system.cpu00.idleCycles                        443148                       # Total number of cycles that the CPU has spent unscheduled due to idling
system.cpu00.quiesceCycles                    1013112                       # Total number of cycles that CPU has spent quiesced or waiting for an interrupt
system.cpu00.committedInsts                   8339663                       # Number of Instructions Simulated
system.cpu00.committedOps                     8339663                       # Number of Ops (including micro ops) Simulated
system.cpu00.cpi                             2.339245                       # CPI: Cycles Per Instruction
system.cpu00.cpi_total                       2.339245                       # CPI: Total CPI of All Threads
system.cpu00.ipc                             0.427488                       # IPC: Instructions Per Cycle
system.cpu00.ipc_total                       0.427488                       # IPC: Total IPC of All Threads
system.cpu00.int_regfile_reads               10260565                       # number of integer regfile reads
system.cpu00.int_regfile_writes               2324523                       # number of integer regfile writes
system.cpu00.fp_regfile_reads                 6290863                       # number of floating regfile reads
system.cpu00.fp_regfile_writes                4702645                       # number of floating regfile writes
system.cpu00.misc_regfile_reads                 30770                       # number of misc regfile reads
system.cpu00.misc_regfile_writes                13950                       # number of misc regfile writes
system.cpu00.dcache.tags.replacements          337709                       # number of replacements
system.cpu00.dcache.tags.tagsinuse          63.555851                       # Cycle average of tags in use
system.cpu00.dcache.tags.total_refs           1771522                       # Total number of references to valid blocks.
system.cpu00.dcache.tags.sampled_refs          337773                       # Sample count of references to valid blocks.
system.cpu00.dcache.tags.avg_refs            5.244712                       # Average number of references to valid blocks.
system.cpu00.dcache.tags.warmup_cycle        71458389                       # Cycle when the warmup percentage was hit.
system.cpu00.dcache.tags.occ_blocks::cpu00.data    63.555851                       # Average occupied blocks per requestor
system.cpu00.dcache.tags.occ_percent::cpu00.data     0.993060                       # Average percentage of cache occupancy
system.cpu00.dcache.tags.occ_percent::total     0.993060                       # Average percentage of cache occupancy
system.cpu00.dcache.tags.occ_task_id_blocks::1024           64                       # Occupied blocks per task id
system.cpu00.dcache.tags.age_task_id_blocks_1024::0           47                       # Occupied blocks per task id
system.cpu00.dcache.tags.age_task_id_blocks_1024::1           17                       # Occupied blocks per task id
system.cpu00.dcache.tags.occ_task_id_percent::1024            1                       # Percentage of cache occupancy per task id
system.cpu00.dcache.tags.tag_accesses         6066847                       # Number of tag accesses
system.cpu00.dcache.tags.data_accesses        6066847                       # Number of data accesses
system.cpu00.dcache.ReadReq_hits::cpu00.data      1421785                       # number of ReadReq hits
system.cpu00.dcache.ReadReq_hits::total       1421785                       # number of ReadReq hits
system.cpu00.dcache.WriteReq_hits::cpu00.data       327870                       # number of WriteReq hits
system.cpu00.dcache.WriteReq_hits::total       327870                       # number of WriteReq hits
system.cpu00.dcache.LoadLockedReq_hits::cpu00.data         6242                       # number of LoadLockedReq hits
system.cpu00.dcache.LoadLockedReq_hits::total         6242                       # number of LoadLockedReq hits
system.cpu00.dcache.StoreCondReq_hits::cpu00.data         6969                       # number of StoreCondReq hits
system.cpu00.dcache.StoreCondReq_hits::total         6969                       # number of StoreCondReq hits
system.cpu00.dcache.demand_hits::cpu00.data      1749655                       # number of demand (read+write) hits
system.cpu00.dcache.demand_hits::total        1749655                       # number of demand (read+write) hits
system.cpu00.dcache.overall_hits::cpu00.data      1749655                       # number of overall hits
system.cpu00.dcache.overall_hits::total       1749655                       # number of overall hits
system.cpu00.dcache.ReadReq_misses::cpu00.data       806472                       # number of ReadReq misses
system.cpu00.dcache.ReadReq_misses::total       806472                       # number of ReadReq misses
system.cpu00.dcache.WriteReq_misses::cpu00.data       291073                       # number of WriteReq misses
system.cpu00.dcache.WriteReq_misses::total       291073                       # number of WriteReq misses
system.cpu00.dcache.LoadLockedReq_misses::cpu00.data          824                       # number of LoadLockedReq misses
system.cpu00.dcache.LoadLockedReq_misses::total          824                       # number of LoadLockedReq misses
system.cpu00.dcache.StoreCondReq_misses::cpu00.data            4                       # number of StoreCondReq misses
system.cpu00.dcache.StoreCondReq_misses::total            4                       # number of StoreCondReq misses
system.cpu00.dcache.demand_misses::cpu00.data      1097545                       # number of demand (read+write) misses
system.cpu00.dcache.demand_misses::total      1097545                       # number of demand (read+write) misses
system.cpu00.dcache.overall_misses::cpu00.data      1097545                       # number of overall misses
system.cpu00.dcache.overall_misses::total      1097545                       # number of overall misses
system.cpu00.dcache.ReadReq_miss_latency::cpu00.data 115704896607                       # number of ReadReq miss cycles
system.cpu00.dcache.ReadReq_miss_latency::total 115704896607                       # number of ReadReq miss cycles
system.cpu00.dcache.WriteReq_miss_latency::cpu00.data  61357357095                       # number of WriteReq miss cycles
system.cpu00.dcache.WriteReq_miss_latency::total  61357357095                       # number of WriteReq miss cycles
system.cpu00.dcache.LoadLockedReq_miss_latency::cpu00.data      9297288                       # number of LoadLockedReq miss cycles
system.cpu00.dcache.LoadLockedReq_miss_latency::total      9297288                       # number of LoadLockedReq miss cycles
system.cpu00.dcache.StoreCondReq_miss_latency::cpu00.data        31347                       # number of StoreCondReq miss cycles
system.cpu00.dcache.StoreCondReq_miss_latency::total        31347                       # number of StoreCondReq miss cycles
system.cpu00.dcache.demand_miss_latency::cpu00.data 177062253702                       # number of demand (read+write) miss cycles
system.cpu00.dcache.demand_miss_latency::total 177062253702                       # number of demand (read+write) miss cycles
system.cpu00.dcache.overall_miss_latency::cpu00.data 177062253702                       # number of overall miss cycles
system.cpu00.dcache.overall_miss_latency::total 177062253702                       # number of overall miss cycles
system.cpu00.dcache.ReadReq_accesses::cpu00.data      2228257                       # number of ReadReq accesses(hits+misses)
system.cpu00.dcache.ReadReq_accesses::total      2228257                       # number of ReadReq accesses(hits+misses)
system.cpu00.dcache.WriteReq_accesses::cpu00.data       618943                       # number of WriteReq accesses(hits+misses)
system.cpu00.dcache.WriteReq_accesses::total       618943                       # number of WriteReq accesses(hits+misses)
system.cpu00.dcache.LoadLockedReq_accesses::cpu00.data         7066                       # number of LoadLockedReq accesses(hits+misses)
system.cpu00.dcache.LoadLockedReq_accesses::total         7066                       # number of LoadLockedReq accesses(hits+misses)
system.cpu00.dcache.StoreCondReq_accesses::cpu00.data         6973                       # number of StoreCondReq accesses(hits+misses)
system.cpu00.dcache.StoreCondReq_accesses::total         6973                       # number of StoreCondReq accesses(hits+misses)
system.cpu00.dcache.demand_accesses::cpu00.data      2847200                       # number of demand (read+write) accesses
system.cpu00.dcache.demand_accesses::total      2847200                       # number of demand (read+write) accesses
system.cpu00.dcache.overall_accesses::cpu00.data      2847200                       # number of overall (read+write) accesses
system.cpu00.dcache.overall_accesses::total      2847200                       # number of overall (read+write) accesses
system.cpu00.dcache.ReadReq_miss_rate::cpu00.data     0.361930                       # miss rate for ReadReq accesses
system.cpu00.dcache.ReadReq_miss_rate::total     0.361930                       # miss rate for ReadReq accesses
system.cpu00.dcache.WriteReq_miss_rate::cpu00.data     0.470274                       # miss rate for WriteReq accesses
system.cpu00.dcache.WriteReq_miss_rate::total     0.470274                       # miss rate for WriteReq accesses
system.cpu00.dcache.LoadLockedReq_miss_rate::cpu00.data     0.116615                       # miss rate for LoadLockedReq accesses
system.cpu00.dcache.LoadLockedReq_miss_rate::total     0.116615                       # miss rate for LoadLockedReq accesses
system.cpu00.dcache.StoreCondReq_miss_rate::cpu00.data     0.000574                       # miss rate for StoreCondReq accesses
system.cpu00.dcache.StoreCondReq_miss_rate::total     0.000574                       # miss rate for StoreCondReq accesses
system.cpu00.dcache.demand_miss_rate::cpu00.data     0.385482                       # miss rate for demand accesses
system.cpu00.dcache.demand_miss_rate::total     0.385482                       # miss rate for demand accesses
system.cpu00.dcache.overall_miss_rate::cpu00.data     0.385482                       # miss rate for overall accesses
system.cpu00.dcache.overall_miss_rate::total     0.385482                       # miss rate for overall accesses
system.cpu00.dcache.ReadReq_avg_miss_latency::cpu00.data 143470.444860                       # average ReadReq miss latency
system.cpu00.dcache.ReadReq_avg_miss_latency::total 143470.444860                       # average ReadReq miss latency
system.cpu00.dcache.WriteReq_avg_miss_latency::cpu00.data 210797.143998                       # average WriteReq miss latency
system.cpu00.dcache.WriteReq_avg_miss_latency::total 210797.143998                       # average WriteReq miss latency
system.cpu00.dcache.LoadLockedReq_avg_miss_latency::cpu00.data 11283.116505                       # average LoadLockedReq miss latency
system.cpu00.dcache.LoadLockedReq_avg_miss_latency::total 11283.116505                       # average LoadLockedReq miss latency
system.cpu00.dcache.StoreCondReq_avg_miss_latency::cpu00.data  7836.750000                       # average StoreCondReq miss latency
system.cpu00.dcache.StoreCondReq_avg_miss_latency::total  7836.750000                       # average StoreCondReq miss latency
system.cpu00.dcache.demand_avg_miss_latency::cpu00.data 161325.734892                       # average overall miss latency
system.cpu00.dcache.demand_avg_miss_latency::total 161325.734892                       # average overall miss latency
system.cpu00.dcache.overall_avg_miss_latency::cpu00.data 161325.734892                       # average overall miss latency
system.cpu00.dcache.overall_avg_miss_latency::total 161325.734892                       # average overall miss latency
system.cpu00.dcache.blocked_cycles::no_mshrs      8696776                       # number of cycles access was blocked
system.cpu00.dcache.blocked_cycles::no_targets          122                       # number of cycles access was blocked
system.cpu00.dcache.blocked::no_mshrs          239743                       # number of cycles access was blocked
system.cpu00.dcache.blocked::no_targets             3                       # number of cycles access was blocked
system.cpu00.dcache.avg_blocked_cycles::no_mshrs    36.275412                       # average number of cycles each access was blocked
system.cpu00.dcache.avg_blocked_cycles::no_targets    40.666667                       # average number of cycles each access was blocked
system.cpu00.dcache.fast_writes                     0                       # number of fast writes performed
system.cpu00.dcache.cache_copies                    0                       # number of cache copies performed
system.cpu00.dcache.writebacks::writebacks       228010                       # number of writebacks
system.cpu00.dcache.writebacks::total          228010                       # number of writebacks
system.cpu00.dcache.ReadReq_mshr_hits::cpu00.data       530419                       # number of ReadReq MSHR hits
system.cpu00.dcache.ReadReq_mshr_hits::total       530419                       # number of ReadReq MSHR hits
system.cpu00.dcache.WriteReq_mshr_hits::cpu00.data       218610                       # number of WriteReq MSHR hits
system.cpu00.dcache.WriteReq_mshr_hits::total       218610                       # number of WriteReq MSHR hits
system.cpu00.dcache.LoadLockedReq_mshr_hits::cpu00.data          434                       # number of LoadLockedReq MSHR hits
system.cpu00.dcache.LoadLockedReq_mshr_hits::total          434                       # number of LoadLockedReq MSHR hits
system.cpu00.dcache.demand_mshr_hits::cpu00.data       749029                       # number of demand (read+write) MSHR hits
system.cpu00.dcache.demand_mshr_hits::total       749029                       # number of demand (read+write) MSHR hits
system.cpu00.dcache.overall_mshr_hits::cpu00.data       749029                       # number of overall MSHR hits
system.cpu00.dcache.overall_mshr_hits::total       749029                       # number of overall MSHR hits
system.cpu00.dcache.ReadReq_mshr_misses::cpu00.data       276053                       # number of ReadReq MSHR misses
system.cpu00.dcache.ReadReq_mshr_misses::total       276053                       # number of ReadReq MSHR misses
system.cpu00.dcache.WriteReq_mshr_misses::cpu00.data        72463                       # number of WriteReq MSHR misses
system.cpu00.dcache.WriteReq_mshr_misses::total        72463                       # number of WriteReq MSHR misses
system.cpu00.dcache.LoadLockedReq_mshr_misses::cpu00.data          390                       # number of LoadLockedReq MSHR misses
system.cpu00.dcache.LoadLockedReq_mshr_misses::total          390                       # number of LoadLockedReq MSHR misses
system.cpu00.dcache.StoreCondReq_mshr_misses::cpu00.data            3                       # number of StoreCondReq MSHR misses
system.cpu00.dcache.StoreCondReq_mshr_misses::total            3                       # number of StoreCondReq MSHR misses
system.cpu00.dcache.demand_mshr_misses::cpu00.data       348516                       # number of demand (read+write) MSHR misses
system.cpu00.dcache.demand_mshr_misses::total       348516                       # number of demand (read+write) MSHR misses
system.cpu00.dcache.overall_mshr_misses::cpu00.data       348516                       # number of overall MSHR misses
system.cpu00.dcache.overall_mshr_misses::total       348516                       # number of overall MSHR misses
system.cpu00.dcache.ReadReq_mshr_miss_latency::cpu00.data  51252681690                       # number of ReadReq MSHR miss cycles
system.cpu00.dcache.ReadReq_mshr_miss_latency::total  51252681690                       # number of ReadReq MSHR miss cycles
system.cpu00.dcache.WriteReq_mshr_miss_latency::cpu00.data  16718051118                       # number of WriteReq MSHR miss cycles
system.cpu00.dcache.WriteReq_mshr_miss_latency::total  16718051118                       # number of WriteReq MSHR miss cycles
system.cpu00.dcache.LoadLockedReq_mshr_miss_latency::cpu00.data      5087502                       # number of LoadLockedReq MSHR miss cycles
system.cpu00.dcache.LoadLockedReq_mshr_miss_latency::total      5087502                       # number of LoadLockedReq MSHR miss cycles
system.cpu00.dcache.StoreCondReq_mshr_miss_latency::cpu00.data        27864                       # number of StoreCondReq MSHR miss cycles
system.cpu00.dcache.StoreCondReq_mshr_miss_latency::total        27864                       # number of StoreCondReq MSHR miss cycles
system.cpu00.dcache.demand_mshr_miss_latency::cpu00.data  67970732808                       # number of demand (read+write) MSHR miss cycles
system.cpu00.dcache.demand_mshr_miss_latency::total  67970732808                       # number of demand (read+write) MSHR miss cycles
system.cpu00.dcache.overall_mshr_miss_latency::cpu00.data  67970732808                       # number of overall MSHR miss cycles
system.cpu00.dcache.overall_mshr_miss_latency::total  67970732808                       # number of overall MSHR miss cycles
system.cpu00.dcache.ReadReq_mshr_miss_rate::cpu00.data     0.123887                       # mshr miss rate for ReadReq accesses
system.cpu00.dcache.ReadReq_mshr_miss_rate::total     0.123887                       # mshr miss rate for ReadReq accesses
system.cpu00.dcache.WriteReq_mshr_miss_rate::cpu00.data     0.117075                       # mshr miss rate for WriteReq accesses
system.cpu00.dcache.WriteReq_mshr_miss_rate::total     0.117075                       # mshr miss rate for WriteReq accesses
system.cpu00.dcache.LoadLockedReq_mshr_miss_rate::cpu00.data     0.055194                       # mshr miss rate for LoadLockedReq accesses
system.cpu00.dcache.LoadLockedReq_mshr_miss_rate::total     0.055194                       # mshr miss rate for LoadLockedReq accesses
system.cpu00.dcache.StoreCondReq_mshr_miss_rate::cpu00.data     0.000430                       # mshr miss rate for StoreCondReq accesses
system.cpu00.dcache.StoreCondReq_mshr_miss_rate::total     0.000430                       # mshr miss rate for StoreCondReq accesses
system.cpu00.dcache.demand_mshr_miss_rate::cpu00.data     0.122407                       # mshr miss rate for demand accesses
system.cpu00.dcache.demand_mshr_miss_rate::total     0.122407                       # mshr miss rate for demand accesses
system.cpu00.dcache.overall_mshr_miss_rate::cpu00.data     0.122407                       # mshr miss rate for overall accesses
system.cpu00.dcache.overall_mshr_miss_rate::total     0.122407                       # mshr miss rate for overall accesses
system.cpu00.dcache.ReadReq_avg_mshr_miss_latency::cpu00.data 185662.469490                       # average ReadReq mshr miss latency
system.cpu00.dcache.ReadReq_avg_mshr_miss_latency::total 185662.469490                       # average ReadReq mshr miss latency
system.cpu00.dcache.WriteReq_avg_mshr_miss_latency::cpu00.data 230711.550971                       # average WriteReq mshr miss latency
[...]
system.tol2bus.pkt_count_system.cpu06.dcache.mem_side::system.l2.cpu_side       946331                       # Packet count per connected master and slave (bytes)
system.tol2bus.pkt_count_system.cpu07.icache.mem_side::system.l2.cpu_side        10258                       # Packet count per connected master and slave (bytes)
system.tol2bus.pkt_count_system.cpu07.dcache.mem_side::system.l2.cpu_side       940988                       # Packet count per connected master and slave (bytes)
system.tol2bus.pkt_count_system.cpu08.icache.mem_side::system.l2.cpu_side        11866                       # Packet count per connected master and slave (bytes)
system.tol2bus.pkt_count_system.cpu08.dcache.mem_side::system.l2.cpu_side       941244                       # Packet count per connected master and slave (bytes)
system.tol2bus.pkt_count_system.cpu09.icache.mem_side::system.l2.cpu_side        11443                       # Packet count per connected master and slave (bytes)
system.tol2bus.pkt_count_system.cpu09.dcache.mem_side::system.l2.cpu_side       932122                       # Packet count per connected master and slave (bytes)
system.tol2bus.pkt_count_system.cpu10.icache.mem_side::system.l2.cpu_side        10240                       # Packet count per connected master and slave (bytes)
system.tol2bus.pkt_count_system.cpu10.dcache.mem_side::system.l2.cpu_side       938989                       # Packet count per connected master and slave (bytes)
system.tol2bus.pkt_count_system.cpu11.icache.mem_side::system.l2.cpu_side        10201                       # Packet count per connected master and slave (bytes)
system.tol2bus.pkt_count_system.cpu11.dcache.mem_side::system.l2.cpu_side       939987                       # Packet count per connected master and slave (bytes)
system.tol2bus.pkt_count_system.cpu12.icache.mem_side::system.l2.cpu_side        11806                       # Packet count per connected master and slave (bytes)
system.tol2bus.pkt_count_system.cpu12.dcache.mem_side::system.l2.cpu_side       938349                       # Packet count per connected master and slave (bytes)
system.tol2bus.pkt_count_system.cpu13.icache.mem_side::system.l2.cpu_side        12184                       # Packet count per connected master and slave (bytes)
system.tol2bus.pkt_count_system.cpu13.dcache.mem_side::system.l2.cpu_side       924259                       # Packet count per connected master and slave (bytes)
system.tol2bus.pkt_count_system.cpu14.icache.mem_side::system.l2.cpu_side        11185                       # Packet count per connected master and slave (bytes)
system.tol2bus.pkt_count_system.cpu14.dcache.mem_side::system.l2.cpu_side       938886                       # Packet count per connected master and slave (bytes)
system.tol2bus.pkt_count_system.cpu15.icache.mem_side::system.l2.cpu_side        12919                       # Packet count per connected master and slave (bytes)
system.tol2bus.pkt_count_system.cpu15.dcache.mem_side::system.l2.cpu_side       927685                       # Packet count per connected master and slave (bytes)
system.tol2bus.pkt_count::total              15259190                       # Packet count per connected master and slave (bytes)
system.tol2bus.pkt_size_system.cpu00.icache.mem_side::system.l2.cpu_side      1544064                       # Cumulative packet size per connected master and slave (bytes)
system.tol2bus.pkt_size_system.cpu00.dcache.mem_side::system.l2.cpu_side     35623104                       # Cumulative packet size per connected master and slave (bytes)
system.tol2bus.pkt_size_system.cpu01.icache.mem_side::system.l2.cpu_side       531840                       # Cumulative packet size per connected master and slave (bytes)
system.tol2bus.pkt_size_system.cpu01.dcache.mem_side::system.l2.cpu_side     32561024                       # Cumulative packet size per connected master and slave (bytes)
system.tol2bus.pkt_size_system.cpu02.icache.mem_side::system.l2.cpu_side       458112                       # Cumulative packet size per connected master and slave (bytes)
system.tol2bus.pkt_size_system.cpu02.dcache.mem_side::system.l2.cpu_side     32768576                       # Cumulative packet size per connected master and slave (bytes)
system.tol2bus.pkt_size_system.cpu03.icache.mem_side::system.l2.cpu_side       464640                       # Cumulative packet size per connected master and slave (bytes)
system.tol2bus.pkt_size_system.cpu03.dcache.mem_side::system.l2.cpu_side     32642304                       # Cumulative packet size per connected master and slave (bytes)
system.tol2bus.pkt_size_system.cpu04.icache.mem_side::system.l2.cpu_side       531200                       # Cumulative packet size per connected master and slave (bytes)
system.tol2bus.pkt_size_system.cpu04.dcache.mem_side::system.l2.cpu_side     32678208                       # Cumulative packet size per connected master and slave (bytes)
system.tol2bus.pkt_size_system.cpu05.icache.mem_side::system.l2.cpu_side       476544                       # Cumulative packet size per connected master and slave (bytes)
system.tol2bus.pkt_size_system.cpu05.dcache.mem_side::system.l2.cpu_side     32728704                       # Cumulative packet size per connected master and slave (bytes)
system.tol2bus.pkt_size_system.cpu06.icache.mem_side::system.l2.cpu_side       431360                       # Cumulative packet size per connected master and slave (bytes)
system.tol2bus.pkt_size_system.cpu06.dcache.mem_side::system.l2.cpu_side     32916288                       # Cumulative packet size per connected master and slave (bytes)
system.tol2bus.pkt_size_system.cpu07.icache.mem_side::system.l2.cpu_side       426752                       # Cumulative packet size per connected master and slave (bytes)
system.tol2bus.pkt_size_system.cpu07.dcache.mem_side::system.l2.cpu_side     32934144                       # Cumulative packet size per connected master and slave (bytes)
system.tol2bus.pkt_size_system.cpu08.icache.mem_side::system.l2.cpu_side       495360                       # Cumulative packet size per connected master and slave (bytes)
system.tol2bus.pkt_size_system.cpu08.dcache.mem_side::system.l2.cpu_side     33122752                       # Cumulative packet size per connected master and slave (bytes)
system.tol2bus.pkt_size_system.cpu09.icache.mem_side::system.l2.cpu_side       477312                       # Cumulative packet size per connected master and slave (bytes)
system.tol2bus.pkt_size_system.cpu09.dcache.mem_side::system.l2.cpu_side     32746432                       # Cumulative packet size per connected master and slave (bytes)
system.tol2bus.pkt_size_system.cpu10.icache.mem_side::system.l2.cpu_side       425984                       # Cumulative packet size per connected master and slave (bytes)
system.tol2bus.pkt_size_system.cpu10.dcache.mem_side::system.l2.cpu_side     32720256                       # Cumulative packet size per connected master and slave (bytes)
system.tol2bus.pkt_size_system.cpu11.icache.mem_side::system.l2.cpu_side       424320                       # Cumulative packet size per connected master and slave (bytes)
system.tol2bus.pkt_size_system.cpu11.dcache.mem_side::system.l2.cpu_side     32991872                       # Cumulative packet size per connected master and slave (bytes)
system.tol2bus.pkt_size_system.cpu12.icache.mem_side::system.l2.cpu_side       492800                       # Cumulative packet size per connected master and slave (bytes)
system.tol2bus.pkt_size_system.cpu12.dcache.mem_side::system.l2.cpu_side     33043904                       # Cumulative packet size per connected master and slave (bytes)
system.tol2bus.pkt_size_system.cpu13.icache.mem_side::system.l2.cpu_side       508928                       # Cumulative packet size per connected master and slave (bytes)
system.tol2bus.pkt_size_system.cpu13.dcache.mem_side::system.l2.cpu_side     32263104                       # Cumulative packet size per connected master and slave (bytes)
system.tol2bus.pkt_size_system.cpu14.icache.mem_side::system.l2.cpu_side       466304                       # Cumulative packet size per connected master and slave (bytes)
system.tol2bus.pkt_size_system.cpu14.dcache.mem_side::system.l2.cpu_side     32700224                       # Cumulative packet size per connected master and slave (bytes)
system.tol2bus.pkt_size_system.cpu15.icache.mem_side::system.l2.cpu_side       540288                       # Cumulative packet size per connected master and slave (bytes)
system.tol2bus.pkt_size_system.cpu15.dcache.mem_side::system.l2.cpu_side     32705664                       # Cumulative packet size per connected master and slave (bytes)
system.tol2bus.pkt_size::total              535842368                       # Cumulative packet size per connected master and slave (bytes)
system.tol2bus.snoops                          917496                       # Total snoops (count)
system.tol2bus.snoop_fanout::samples          5998938                       # Request fanout histogram
system.tol2bus.snoop_fanout::mean            0.550674                       # Request fanout histogram
system.tol2bus.snoop_fanout::stdev           2.231443                       # Request fanout histogram
system.tol2bus.snoop_fanout::underflows             0      0.00%      0.00% # Request fanout histogram
system.tol2bus.snoop_fanout::0                5298914     88.33%     88.33% # Request fanout histogram
system.tol2bus.snoop_fanout::1                 309996      5.17%     93.50% # Request fanout histogram
system.tol2bus.snoop_fanout::2                  79465      1.32%     94.82% # Request fanout histogram
system.tol2bus.snoop_fanout::3                  34398      0.57%     95.40% # Request fanout histogram
system.tol2bus.snoop_fanout::4                  23954      0.40%     95.80% # Request fanout histogram
system.tol2bus.snoop_fanout::5                  21634      0.36%     96.16% # Request fanout histogram
system.tol2bus.snoop_fanout::6                  20592      0.34%     96.50% # Request fanout histogram
system.tol2bus.snoop_fanout::7                  21184      0.35%     96.85% # Request fanout histogram
system.tol2bus.snoop_fanout::8                  19778      0.33%     97.18% # Request fanout histogram
system.tol2bus.snoop_fanout::9                  20004      0.33%     97.52% # Request fanout histogram
system.tol2bus.snoop_fanout::10                 21086      0.35%     97.87% # Request fanout histogram
system.tol2bus.snoop_fanout::11                 21746      0.36%     98.23% # Request fanout histogram
system.tol2bus.snoop_fanout::12                 20570      0.34%     98.57% # Request fanout histogram
system.tol2bus.snoop_fanout::13                 21504      0.36%     98.93% # Request fanout histogram
system.tol2bus.snoop_fanout::14                 24577      0.41%     99.34% # Request fanout histogram
system.tol2bus.snoop_fanout::15                 35857      0.60%     99.94% # Request fanout histogram
system.tol2bus.snoop_fanout::16                  3679      0.06%    100.00% # Request fanout histogram
system.tol2bus.snoop_fanout::17                     0      0.00%    100.00% # Request fanout histogram
system.tol2bus.snoop_fanout::18                     0      0.00%    100.00% # Request fanout histogram
system.tol2bus.snoop_fanout::19                     0      0.00%    100.00% # Request fanout histogram
system.tol2bus.snoop_fanout::20                     0      0.00%    100.00% # Request fanout histogram
system.tol2bus.snoop_fanout::21                     0      0.00%    100.00% # Request fanout histogram
system.tol2bus.snoop_fanout::22                     0      0.00%    100.00% # Request fanout histogram
system.tol2bus.snoop_fanout::23                     0      0.00%    100.00% # Request fanout histogram
system.tol2bus.snoop_fanout::24                     0      0.00%    100.00% # Request fanout histogram
system.tol2bus.snoop_fanout::25                     0      0.00%    100.00% # Request fanout histogram
system.tol2bus.snoop_fanout::26                     0      0.00%    100.00% # Request fanout histogram
system.tol2bus.snoop_fanout::27                     0      0.00%    100.00% # Request fanout histogram
system.tol2bus.snoop_fanout::28                     0      0.00%    100.00% # Request fanout histogram
system.tol2bus.snoop_fanout::29                     0      0.00%    100.00% # Request fanout histogram
system.tol2bus.snoop_fanout::30                     0      0.00%    100.00% # Request fanout histogram
system.tol2bus.snoop_fanout::31                     0      0.00%    100.00% # Request fanout histogram
system.tol2bus.snoop_fanout::32                     0      0.00%    100.00% # Request fanout histogram
system.tol2bus.snoop_fanout::overflows              0      0.00%    100.00% # Request fanout histogram
system.tol2bus.snoop_fanout::min_value              0                       # Request fanout histogram
system.tol2bus.snoop_fanout::max_value             16                       # Request fanout histogram
system.tol2bus.snoop_fanout::total            5998938                       # Request fanout histogram
system.tol2bus.reqLayer0.occupancy        20239932228                       # Layer occupancy (ticks)
system.tol2bus.reqLayer0.utilization             85.0                       # Layer utilization (%)
system.tol2bus.respLayer0.occupancy          44417043                       # Layer occupancy (ticks)
system.tol2bus.respLayer0.utilization             0.2                       # Layer utilization (%)
system.tol2bus.respLayer1.occupancy        1221623946                       # Layer occupancy (ticks)
system.tol2bus.respLayer1.utilization             5.1                       # Layer utilization (%)
system.tol2bus.respLayer2.occupancy          16517032                       # Layer occupancy (ticks)
system.tol2bus.respLayer2.utilization             0.1                       # Layer utilization (%)
system.tol2bus.respLayer3.occupancy        1107102642                       # Layer occupancy (ticks)
system.tol2bus.respLayer3.utilization             4.6                       # Layer utilization (%)
system.tol2bus.respLayer4.occupancy          14306136                       # Layer occupancy (ticks)
system.tol2bus.respLayer4.utilization             0.1                       # Layer utilization (%)
system.tol2bus.respLayer5.occupancy        1129577496                       # Layer occupancy (ticks)
system.tol2bus.respLayer5.utilization             4.7                       # Layer utilization (%)
system.tol2bus.respLayer6.occupancy          14553983                       # Layer occupancy (ticks)
system.tol2bus.respLayer6.utilization             0.1                       # Layer utilization (%)
system.tol2bus.respLayer7.occupancy        1122614517                       # Layer occupancy (ticks)
system.tol2bus.respLayer7.utilization             4.7                       # Layer utilization (%)
system.tol2bus.respLayer8.occupancy          16555890                       # Layer occupancy (ticks)
system.tol2bus.respLayer8.utilization             0.1                       # Layer utilization (%)
system.tol2bus.respLayer9.occupancy        1107000713                       # Layer occupancy (ticks)
system.tol2bus.respLayer9.utilization             4.6                       # Layer utilization (%)
system.tol2bus.respLayer10.occupancy         14857100                       # Layer occupancy (ticks)
system.tol2bus.respLayer10.utilization            0.1                       # Layer utilization (%)
system.tol2bus.respLayer11.occupancy       1122399040                       # Layer occupancy (ticks)
system.tol2bus.respLayer11.utilization            4.7                       # Layer utilization (%)
system.tol2bus.respLayer12.occupancy         13864967                       # Layer occupancy (ticks)
system.tol2bus.respLayer12.utilization            0.1                       # Layer utilization (%)
system.tol2bus.respLayer13.occupancy       1143387559                       # Layer occupancy (ticks)
system.tol2bus.respLayer13.utilization            4.8                       # Layer utilization (%)
system.tol2bus.respLayer14.occupancy         13786396                       # Layer occupancy (ticks)
system.tol2bus.respLayer14.utilization            0.1                       # Layer utilization (%)
system.tol2bus.respLayer15.occupancy       1135002657                       # Layer occupancy (ticks)
system.tol2bus.respLayer15.utilization            4.8                       # Layer utilization (%)
system.tol2bus.respLayer16.occupancy         15512209                       # Layer occupancy (ticks)
system.tol2bus.respLayer16.utilization            0.1                       # Layer utilization (%)
system.tol2bus.respLayer17.occupancy       1126344327                       # Layer occupancy (ticks)
system.tol2bus.respLayer17.utilization            4.7                       # Layer utilization (%)
system.tol2bus.respLayer18.occupancy         15001832                       # Layer occupancy (ticks)
system.tol2bus.respLayer18.utilization            0.1                       # Layer utilization (%)
system.tol2bus.respLayer19.occupancy       1116552716                       # Layer occupancy (ticks)
system.tol2bus.respLayer19.utilization            4.7                       # Layer utilization (%)
system.tol2bus.respLayer20.occupancy         13730019                       # Layer occupancy (ticks)
system.tol2bus.respLayer20.utilization            0.1                       # Layer utilization (%)
system.tol2bus.respLayer21.occupancy       1136145608                       # Layer occupancy (ticks)
system.tol2bus.respLayer21.utilization            4.8                       # Layer utilization (%)
system.tol2bus.respLayer22.occupancy         13607711                       # Layer occupancy (ticks)
system.tol2bus.respLayer22.utilization            0.1                       # Layer utilization (%)
system.tol2bus.respLayer23.occupancy       1134261406                       # Layer occupancy (ticks)
system.tol2bus.respLayer23.utilization            4.8                       # Layer utilization (%)
system.tol2bus.respLayer24.occupancy         15548348                       # Layer occupancy (ticks)
system.tol2bus.respLayer24.utilization            0.1                       # Layer utilization (%)
system.tol2bus.respLayer25.occupancy       1124527931                       # Layer occupancy (ticks)
system.tol2bus.respLayer25.utilization            4.7                       # Layer utilization (%)
system.tol2bus.respLayer26.occupancy         15912125                       # Layer occupancy (ticks)
system.tol2bus.respLayer26.utilization            0.1                       # Layer utilization (%)
system.tol2bus.respLayer27.occupancy       1105874293                       # Layer occupancy (ticks)
system.tol2bus.respLayer27.utilization            4.6                       # Layer utilization (%)
system.tol2bus.respLayer28.occupancy         14619515                       # Layer occupancy (ticks)
system.tol2bus.respLayer28.utilization            0.1                       # Layer utilization (%)
system.tol2bus.respLayer29.occupancy       1132227796                       # Layer occupancy (ticks)
system.tol2bus.respLayer29.utilization            4.8                       # Layer utilization (%)
system.tol2bus.respLayer30.occupancy         16879554                       # Layer occupancy (ticks)
system.tol2bus.respLayer30.utilization            0.1                       # Layer utilization (%)
system.tol2bus.respLayer31.occupancy       1108096636                       # Layer occupancy (ticks)
system.tol2bus.respLayer31.utilization            4.7                       # Layer utilization (%)

---------- End Simulation Statistics   ----------
