
---------- Begin Simulation Statistics ----------
sim_seconds                                  0.010184                       # Number of seconds simulated
sim_ticks                                 10184074893                       # Number of ticks simulated
final_tick                                10184074893                       # Number of ticks from beginning of simulation (restored from checkpoints and never reset)
sim_freq                                 1000000000000                       # Frequency of simulated ticks
host_inst_rate                                  91400                       # Simulator instruction rate (inst/s)
host_op_rate                                    91400                       # Simulator op (including micro ops) rate (op/s)
host_tick_rate                               14540310                       # Simulator tick rate (ticks/s)
host_mem_usage                                 692704                       # Number of bytes of host memory used
host_seconds                                   700.40                       # Real time elapsed on the host
sim_insts                                    64016664                       # Number of instructions simulated
sim_ops                                      64016664                       # Number of ops (including micro ops) simulated
system.voltage_domain.voltage                       1                       # Voltage in Volts
system.clk_domain.clock                          1000                       # Clock period in ticks
system.mem_ctrls.bytes_read::cpu00.inst        129216                       # Number of bytes read from this memory
system.mem_ctrls.bytes_read::cpu00.data        892416                       # Number of bytes read from this memory
system.mem_ctrls.bytes_read::cpu01.inst         12288                       # Number of bytes read from this memory
system.mem_ctrls.bytes_read::cpu01.data        605440                       # Number of bytes read from this memory
system.mem_ctrls.bytes_read::cpu02.inst          1472                       # Number of bytes read from this memory
system.mem_ctrls.bytes_read::cpu02.data        619584                       # Number of bytes read from this memory
system.mem_ctrls.bytes_read::cpu03.inst           192                       # Number of bytes read from this memory
system.mem_ctrls.bytes_read::cpu03.data        608448                       # Number of bytes read from this memory
system.mem_ctrls.bytes_read::cpu04.inst           320                       # Number of bytes read from this memory
system.mem_ctrls.bytes_read::cpu04.data        635840                       # Number of bytes read from this memory
system.mem_ctrls.bytes_read::cpu05.inst            64                       # Number of bytes read from this memory
system.mem_ctrls.bytes_read::cpu05.data        606400                       # Number of bytes read from this memory
system.mem_ctrls.bytes_read::cpu06.inst           128                       # Number of bytes read from this memory
system.mem_ctrls.bytes_read::cpu06.data        619712                       # Number of bytes read from this memory
system.mem_ctrls.bytes_read::cpu07.inst            64                       # Number of bytes read from this memory
system.mem_ctrls.bytes_read::cpu07.data        605056                       # Number of bytes read from this memory
system.mem_ctrls.bytes_read::cpu08.inst            64                       # Number of bytes read from this memory
system.mem_ctrls.bytes_read::cpu08.data        651008                       # Number of bytes read from this memory
system.mem_ctrls.bytes_read::cpu09.data        550272                       # Number of bytes read from this memory
system.mem_ctrls.bytes_read::cpu10.inst            64                       # Number of bytes read from this memory
system.mem_ctrls.bytes_read::cpu10.data        623744                       # Number of bytes read from this memory
system.mem_ctrls.bytes_read::cpu11.data        545792                       # Number of bytes read from this memory
system.mem_ctrls.bytes_read::cpu12.inst           256                       # Number of bytes read from this memory
system.mem_ctrls.bytes_read::cpu12.data        579456                       # Number of bytes read from this memory
system.mem_ctrls.bytes_read::cpu13.inst           256                       # Number of bytes read from this memory
system.mem_ctrls.bytes_read::cpu13.data        535744                       # Number of bytes read from this memory
system.mem_ctrls.bytes_read::cpu14.inst           128                       # Number of bytes read from this memory
system.mem_ctrls.bytes_read::cpu14.data        568768                       # Number of bytes read from this memory
system.mem_ctrls.bytes_read::cpu15.inst          1024                       # Number of bytes read from this memory
system.mem_ctrls.bytes_read::cpu15.data        573632                       # Number of bytes read from this memory
system.mem_ctrls.bytes_read::total            9966848                       # Number of bytes read from this memory
system.mem_ctrls.bytes_inst_read::cpu00.inst       129216                       # Number of instructions bytes read from this memory
system.mem_ctrls.bytes_inst_read::cpu01.inst        12288                       # Number of instructions bytes read from this memory
system.mem_ctrls.bytes_inst_read::cpu02.inst         1472                       # Number of instructions bytes read from this memory
system.mem_ctrls.bytes_inst_read::cpu03.inst          192                       # Number of instructions bytes read from this memory
system.mem_ctrls.bytes_inst_read::cpu04.inst          320                       # Number of instructions bytes read from this memory
system.mem_ctrls.bytes_inst_read::cpu05.inst           64                       # Number of instructions bytes read from this memory
system.mem_ctrls.bytes_inst_read::cpu06.inst          128                       # Number of instructions bytes read from this memory
system.mem_ctrls.bytes_inst_read::cpu07.inst           64                       # Number of instructions bytes read from this memory
system.mem_ctrls.bytes_inst_read::cpu08.inst           64                       # Number of instructions bytes read from this memory
system.mem_ctrls.bytes_inst_read::cpu10.inst           64                       # Number of instructions bytes read from this memory
system.mem_ctrls.bytes_inst_read::cpu12.inst          256                       # Number of instructions bytes read from this memory
system.mem_ctrls.bytes_inst_read::cpu13.inst          256                       # Number of instructions bytes read from this memory
system.mem_ctrls.bytes_inst_read::cpu14.inst          128                       # Number of instructions bytes read from this memory
system.mem_ctrls.bytes_inst_read::cpu15.inst         1024                       # Number of instructions bytes read from this memory
system.mem_ctrls.bytes_inst_read::total        145536                       # Number of instructions bytes read from this memory
system.mem_ctrls.bytes_written::writebacks      5868288                       # Number of bytes written to this memory
system.mem_ctrls.bytes_written::total         5868288                       # Number of bytes written to this memory
system.mem_ctrls.num_reads::cpu00.inst           2019                       # Number of read requests responded to by this memory
system.mem_ctrls.num_reads::cpu00.data          13944                       # Number of read requests responded to by this memory
system.mem_ctrls.num_reads::cpu01.inst            192                       # Number of read requests responded to by this memory
system.mem_ctrls.num_reads::cpu01.data           9460                       # Number of read requests responded to by this memory
system.mem_ctrls.num_reads::cpu02.inst             23                       # Number of read requests responded to by this memory
system.mem_ctrls.num_reads::cpu02.data           9681                       # Number of read requests responded to by this memory
system.mem_ctrls.num_reads::cpu03.inst              3                       # Number of read requests responded to by this memory
system.mem_ctrls.num_reads::cpu03.data           9507                       # Number of read requests responded to by this memory
system.mem_ctrls.num_reads::cpu04.inst              5                       # Number of read requests responded to by this memory
system.mem_ctrls.num_reads::cpu04.data           9935                       # Number of read requests responded to by this memory
system.mem_ctrls.num_reads::cpu05.inst              1                       # Number of read requests responded to by this memory
system.mem_ctrls.num_reads::cpu05.data           9475                       # Number of read requests responded to by this memory
system.mem_ctrls.num_reads::cpu06.inst              2                       # Number of read requests responded to by this memory
system.mem_ctrls.num_reads::cpu06.data           9683                       # Number of read requests responded to by this memory
system.mem_ctrls.num_reads::cpu07.inst              1                       # Number of read requests responded to by this memory
system.mem_ctrls.num_reads::cpu07.data           9454                       # Number of read requests responded to by this memory
system.mem_ctrls.num_reads::cpu08.inst              1                       # Number of read requests responded to by this memory
system.mem_ctrls.num_reads::cpu08.data          10172                       # Number of read requests responded to by this memory
system.mem_ctrls.num_reads::cpu09.data           8598                       # Number of read requests responded to by this memory
system.mem_ctrls.num_reads::cpu10.inst              1                       # Number of read requests responded to by this memory
system.mem_ctrls.num_reads::cpu10.data           9746                       # Number of read requests responded to by this memory
system.mem_ctrls.num_reads::cpu11.data           8528                       # Number of read requests responded to by this memory
system.mem_ctrls.num_reads::cpu12.inst              4                       # Number of read requests responded to by this memory
system.mem_ctrls.num_reads::cpu12.data           9054                       # Number of read requests responded to by this memory
system.mem_ctrls.num_reads::cpu13.inst              4                       # Number of read requests responded to by this memory
system.mem_ctrls.num_reads::cpu13.data           8371                       # Number of read requests responded to by this memory
system.mem_ctrls.num_reads::cpu14.inst              2                       # Number of read requests responded to by this memory
system.mem_ctrls.num_reads::cpu14.data           8887                       # Number of read requests responded to by this memory
system.mem_ctrls.num_reads::cpu15.inst             16                       # Number of read requests responded to by this memory
system.mem_ctrls.num_reads::cpu15.data           8963                       # Number of read requests responded to by this memory
system.mem_ctrls.num_reads::total              155732                       # Number of read requests responded to by this memory
system.mem_ctrls.num_writes::writebacks         91692                       # Number of write requests responded to by this memory
system.mem_ctrls.num_writes::total              91692                       # Number of write requests responded to by this memory
system.mem_ctrls.bw_read::cpu00.inst         12688045                       # Total read bandwidth from this memory (bytes/s)
system.mem_ctrls.bw_read::cpu00.data         87628578                       # Total read bandwidth from this memory (bytes/s)
system.mem_ctrls.bw_read::cpu01.inst          1206590                       # Total read bandwidth from this memory (bytes/s)
system.mem_ctrls.bw_read::cpu01.data         59449681                       # Total read bandwidth from this memory (bytes/s)
system.mem_ctrls.bw_read::cpu02.inst           144539                       # Total read bandwidth from this memory (bytes/s)
system.mem_ctrls.bw_read::cpu02.data         60838516                       # Total read bandwidth from this memory (bytes/s)
system.mem_ctrls.bw_read::cpu03.inst            18853                       # Total read bandwidth from this memory (bytes/s)
system.mem_ctrls.bw_read::cpu03.data         59745044                       # Total read bandwidth from this memory (bytes/s)
system.mem_ctrls.bw_read::cpu04.inst            31422                       # Total read bandwidth from this memory (bytes/s)
system.mem_ctrls.bw_read::cpu04.data         62434733                       # Total read bandwidth from this memory (bytes/s)
system.mem_ctrls.bw_read::cpu05.inst             6284                       # Total read bandwidth from this memory (bytes/s)
system.mem_ctrls.bw_read::cpu05.data         59543945                       # Total read bandwidth from this memory (bytes/s)
system.mem_ctrls.bw_read::cpu06.inst            12569                       # Total read bandwidth from this memory (bytes/s)
system.mem_ctrls.bw_read::cpu06.data         60851084                       # Total read bandwidth from this memory (bytes/s)
system.mem_ctrls.bw_read::cpu07.inst             6284                       # Total read bandwidth from this memory (bytes/s)
system.mem_ctrls.bw_read::cpu07.data         59411975                       # Total read bandwidth from this memory (bytes/s)
system.mem_ctrls.bw_read::cpu08.inst             6284                       # Total read bandwidth from this memory (bytes/s)
system.mem_ctrls.bw_read::cpu08.data         63924117                       # Total read bandwidth from this memory (bytes/s)
system.mem_ctrls.bw_read::cpu09.data         54032596                       # Total read bandwidth from this memory (bytes/s)
system.mem_ctrls.bw_read::cpu10.inst             6284                       # Total read bandwidth from this memory (bytes/s)
system.mem_ctrls.bw_read::cpu10.data         61246997                       # Total read bandwidth from this memory (bytes/s)
system.mem_ctrls.bw_read::cpu11.data         53592693                       # Total read bandwidth from this memory (bytes/s)
system.mem_ctrls.bw_read::cpu12.inst            25137                       # Total read bandwidth from this memory (bytes/s)
system.mem_ctrls.bw_read::cpu12.data         56898246                       # Total read bandwidth from this memory (bytes/s)
system.mem_ctrls.bw_read::cpu13.inst            25137                       # Total read bandwidth from this memory (bytes/s)
system.mem_ctrls.bw_read::cpu13.data         52606055                       # Total read bandwidth from this memory (bytes/s)
system.mem_ctrls.bw_read::cpu14.inst            12569                       # Total read bandwidth from this memory (bytes/s)
system.mem_ctrls.bw_read::cpu14.data         55848764                       # Total read bandwidth from this memory (bytes/s)
system.mem_ctrls.bw_read::cpu15.inst           100549                       # Total read bandwidth from this memory (bytes/s)
system.mem_ctrls.bw_read::cpu15.data         56326373                       # Total read bandwidth from this memory (bytes/s)
system.mem_ctrls.bw_read::total             978669943                       # Total read bandwidth from this memory (bytes/s)
system.mem_ctrls.bw_inst_read::cpu00.inst     12688045                       # Instruction read bandwidth from this memory (bytes/s)
system.mem_ctrls.bw_inst_read::cpu01.inst      1206590                       # Instruction read bandwidth from this memory (bytes/s)
system.mem_ctrls.bw_inst_read::cpu02.inst       144539                       # Instruction read bandwidth from this memory (bytes/s)
system.mem_ctrls.bw_inst_read::cpu03.inst        18853                       # Instruction read bandwidth from this memory (bytes/s)
system.mem_ctrls.bw_inst_read::cpu04.inst        31422                       # Instruction read bandwidth from this memory (bytes/s)
system.mem_ctrls.bw_inst_read::cpu05.inst         6284                       # Instruction read bandwidth from this memory (bytes/s)
system.mem_ctrls.bw_inst_read::cpu06.inst        12569                       # Instruction read bandwidth from this memory (bytes/s)
system.mem_ctrls.bw_inst_read::cpu07.inst         6284                       # Instruction read bandwidth from this memory (bytes/s)
system.mem_ctrls.bw_inst_read::cpu08.inst         6284                       # Instruction read bandwidth from this memory (bytes/s)
system.mem_ctrls.bw_inst_read::cpu10.inst         6284                       # Instruction read bandwidth from this memory (bytes/s)
system.mem_ctrls.bw_inst_read::cpu12.inst        25137                       # Instruction read bandwidth from this memory (bytes/s)
system.mem_ctrls.bw_inst_read::cpu13.inst        25137                       # Instruction read bandwidth from this memory (bytes/s)
system.mem_ctrls.bw_inst_read::cpu14.inst        12569                       # Instruction read bandwidth from this memory (bytes/s)
system.mem_ctrls.bw_inst_read::cpu15.inst       100549                       # Instruction read bandwidth from this memory (bytes/s)
system.mem_ctrls.bw_inst_read::total         14290547                       # Instruction read bandwidth from this memory (bytes/s)
system.mem_ctrls.bw_write::writebacks       576222000                       # Write bandwidth from this memory (bytes/s)
system.mem_ctrls.bw_write::total            576222000                       # Write bandwidth from this memory (bytes/s)
system.mem_ctrls.bw_total::writebacks       576222000                       # Total bandwidth to/from this memory (bytes/s)
system.mem_ctrls.bw_total::cpu00.inst        12688045                       # Total bandwidth to/from this memory (bytes/s)
system.mem_ctrls.bw_total::cpu00.data        87628578                       # Total bandwidth to/from this memory (bytes/s)
system.mem_ctrls.bw_total::cpu01.inst         1206590                       # Total bandwidth to/from this memory (bytes/s)
system.mem_ctrls.bw_total::cpu01.data        59449681                       # Total bandwidth to/from this memory (bytes/s)
system.mem_ctrls.bw_total::cpu02.inst          144539                       # Total bandwidth to/from this memory (bytes/s)
system.mem_ctrls.bw_total::cpu02.data        60838516                       # Total bandwidth to/from this memory (bytes/s)
system.mem_ctrls.bw_total::cpu03.inst           18853                       # Total bandwidth to/from this memory (bytes/s)
system.mem_ctrls.bw_total::cpu03.data        59745044                       # Total bandwidth to/from this memory (bytes/s)
system.mem_ctrls.bw_total::cpu04.inst           31422                       # Total bandwidth to/from this memory (bytes/s)
system.mem_ctrls.bw_total::cpu04.data        62434733                       # Total bandwidth to/from this memory (bytes/s)
system.mem_ctrls.bw_total::cpu05.inst            6284                       # Total bandwidth to/from this memory (bytes/s)
system.mem_ctrls.bw_total::cpu05.data        59543945                       # Total bandwidth to/from this memory (bytes/s)
system.mem_ctrls.bw_total::cpu06.inst           12569                       # Total bandwidth to/from this memory (bytes/s)
system.mem_ctrls.bw_total::cpu06.data        60851084                       # Total bandwidth to/from this memory (bytes/s)
system.mem_ctrls.bw_total::cpu07.inst            6284                       # Total bandwidth to/from this memory (bytes/s)
system.mem_ctrls.bw_total::cpu07.data        59411975                       # Total bandwidth to/from this memory (bytes/s)
system.mem_ctrls.bw_total::cpu08.inst            6284                       # Total bandwidth to/from this memory (bytes/s)
system.mem_ctrls.bw_total::cpu08.data        63924117                       # Total bandwidth to/from this memory (bytes/s)
system.mem_ctrls.bw_total::cpu09.data        54032596                       # Total bandwidth to/from this memory (bytes/s)
system.mem_ctrls.bw_total::cpu10.inst            6284                       # Total bandwidth to/from this memory (bytes/s)
system.mem_ctrls.bw_total::cpu10.data        61246997                       # Total bandwidth to/from this memory (bytes/s)
system.mem_ctrls.bw_total::cpu11.data        53592693                       # Total bandwidth to/from this memory (bytes/s)
system.mem_ctrls.bw_total::cpu12.inst           25137                       # Total bandwidth to/from this memory (bytes/s)
system.mem_ctrls.bw_total::cpu12.data        56898246                       # Total bandwidth to/from this memory (bytes/s)
system.mem_ctrls.bw_total::cpu13.inst           25137                       # Total bandwidth to/from this memory (bytes/s)
system.mem_ctrls.bw_total::cpu13.data        52606055                       # Total bandwidth to/from this memory (bytes/s)
system.mem_ctrls.bw_total::cpu14.inst           12569                       # Total bandwidth to/from this memory (bytes/s)
system.mem_ctrls.bw_total::cpu14.data        55848764                       # Total bandwidth to/from this memory (bytes/s)
system.mem_ctrls.bw_total::cpu15.inst          100549                       # Total bandwidth to/from this memory (bytes/s)
system.mem_ctrls.bw_total::cpu15.data        56326373                       # Total bandwidth to/from this memory (bytes/s)
system.mem_ctrls.bw_total::total           1554891943                       # Total bandwidth to/from this memory (bytes/s)
system.cpu00.branchPred.lookups                332746                       # Number of BP lookups
system.cpu00.branchPred.condPredicted          167489                       # Number of conditional branches predicted
system.cpu00.branchPred.condIncorrect            5300                       # Number of conditional branches incorrect
system.cpu00.branchPred.BTBLookups             233397                       # Number of BTB lookups
system.cpu00.branchPred.BTBHits                210724                       # Number of BTB hits
system.cpu00.branchPred.BTBCorrect                  0                       # Number of correct BTB predictions (this stat may not work properly.
system.cpu00.branchPred.BTBHitPct           90.285651                       # BTB Hit Percentage
system.cpu00.branchPred.usedRAS                 79655                       # Number of times the RAS was used to get a target.
system.cpu00.branchPred.RASInCorrect               82                       # Number of incorrect RAS predictions.
system.cpu00.branchPred.indirectLookups          1712                       # Number of indirect predictor lookups.
system.cpu00.branchPred.indirectHits              981                       # Number of indirect target hits.
system.cpu00.branchPred.indirectMisses            731                       # Number of indirect misses.
system.cpu00.branchPredindirectMispredicted          232                       # Number of mispredicted indirect branches.
system.cpu_voltage_domain.voltage                   1                       # Voltage in Volts
system.cpu_clk_domain.clock                      1161                       # Clock period in ticks
system.cpu00.dtb.fetch_hits                         0                       # ITB hits
system.cpu00.dtb.fetch_misses                       0                       # ITB misses
system.cpu00.dtb.fetch_acv                          0                       # ITB acv
system.cpu00.dtb.fetch_accesses                     0                       # ITB accesses
system.cpu00.dtb.read_hits                    1178317                       # DTB read hits
system.cpu00.dtb.read_misses                     7879                       # DTB read misses
system.cpu00.dtb.read_acv                           2                       # DTB read access violations
system.cpu00.dtb.read_accesses                1186196                       # DTB read accesses
system.cpu00.dtb.write_hits                    355442                       # DTB write hits
system.cpu00.dtb.write_misses                   60108                       # DTB write misses
system.cpu00.dtb.write_acv                          0                       # DTB write access violations
system.cpu00.dtb.write_accesses                415550                       # DTB write accesses
system.cpu00.dtb.data_hits                    1533759                       # DTB hits
system.cpu00.dtb.data_misses                    67987                       # DTB misses
system.cpu00.dtb.data_acv                           2                       # DTB access violations
system.cpu00.dtb.data_accesses                1601746                       # DTB accesses
system.cpu00.itb.fetch_hits                    767550                       # ITB hits
system.cpu00.itb.fetch_misses                     168                       # ITB misses
system.cpu00.itb.fetch_acv                          0                       # ITB acv
system.cpu00.itb.fetch_accesses                767718                       # ITB accesses
system.cpu00.itb.read_hits                          0                       # DTB read hits
system.cpu00.itb.read_misses                        0                       # DTB read misses
system.cpu00.itb.read_acv                           0                       # DTB read access violations
system.cpu00.itb.read_accesses                      0                       # DTB read accesses
system.cpu00.itb.write_hits                         0                       # DTB write hits
system.cpu00.itb.write_misses                       0                       # DTB write misses
system.cpu00.itb.write_acv                          0                       # DTB write access violations
system.cpu00.itb.write_accesses                     0                       # DTB write accesses
system.cpu00.itb.data_hits                          0                       # DTB hits
system.cpu00.itb.data_misses                        0                       # DTB misses
system.cpu00.itb.data_acv                           0                       # DTB access violations
system.cpu00.itb.data_accesses                      0                       # DTB accesses
system.cpu00.workload.num_syscalls               1713                       # Number of system calls
system.cpu00.numCycles                        8483823                       # number of cpu cycles simulated
system.cpu00.numWorkItemsStarted                    0                       # number of work items this cpu started
system.cpu00.numWorkItemsCompleted                  0                       # number of work items this cpu completed
system.cpu00.fetch.icacheStallCycles            91002                       # Number of cycles fetch is stalled on an Icache miss
system.cpu00.fetch.Insts                      7376078                       # Number of instructions fetch has processed
system.cpu00.fetch.Branches                    332746                       # Number of branches that fetch encountered
system.cpu00.fetch.predictedBranches           291360                       # Number of branches that fetch has predicted taken
system.cpu00.fetch.Cycles                     8146661                       # Number of cycles fetch has run and was not squashing or blocked
system.cpu00.fetch.SquashCycles                 48448                       # Number of cycles fetch has spent squashing
system.cpu00.fetch.MiscStallCycles                 97                       # Number of cycles fetch has spent waiting on interrupts, or bad addresses, or out of MSHRs
system.cpu00.fetch.PendingTrapStallCycles         6921                       # Number of stall cycles due to pending traps
system.cpu00.fetch.IcacheWaitRetryStallCycles           74                       # Number of stall cycles due to full MSHR
system.cpu00.fetch.CacheLines                  767550                       # Number of cache lines fetched
system.cpu00.fetch.IcacheSquashes                2548                       # Number of outstanding Icache misses that were squashed
system.cpu00.fetch.rateDist::samples          8268979                       # Number of instructions fetched each cycle (Total)
system.cpu00.fetch.rateDist::mean            0.892018                       # Number of instructions fetched each cycle (Total)
system.cpu00.fetch.rateDist::stdev           2.251035                       # Number of instructions fetched each cycle (Total)
system.cpu00.fetch.rateDist::underflows             0      0.00%      0.00% # Number of instructions fetched each cycle (Total)
system.cpu00.fetch.rateDist::0                6917062     83.65%     83.65% # Number of instructions fetched each cycle (Total)
system.cpu00.fetch.rateDist::1                  35468      0.43%     84.08% # Number of instructions fetched each cycle (Total)
system.cpu00.fetch.rateDist::2                 258549      3.13%     87.21% # Number of instructions fetched each cycle (Total)
system.cpu00.fetch.rateDist::3                  29766      0.36%     87.57% # Number of instructions fetched each cycle (Total)
system.cpu00.fetch.rateDist::4                 269049      3.25%     90.82% # Number of instructions fetched each cycle (Total)
system.cpu00.fetch.rateDist::5                  49526      0.60%     91.42% # Number of instructions fetched each cycle (Total)
system.cpu00.fetch.rateDist::6                  89405      1.08%     92.50% # Number of instructions fetched each cycle (Total)
system.cpu00.fetch.rateDist::7                  87274      1.06%     93.56% # Number of instructions fetched each cycle (Total)
system.cpu00.fetch.rateDist::8                 532880      6.44%    100.00% # Number of instructions fetched each cycle (Total)
system.cpu00.fetch.rateDist::overflows              0      0.00%    100.00% # Number of instructions fetched each cycle (Total)
system.cpu00.fetch.rateDist::min_value              0                       # Number of instructions fetched each cycle (Total)
system.cpu00.fetch.rateDist::max_value              8                       # Number of instructions fetched each cycle (Total)
system.cpu00.fetch.rateDist::total            8268979                       # Number of instructions fetched each cycle (Total)
system.cpu00.fetch.branchRate                0.039221                       # Number of branch fetches per cycle
system.cpu00.fetch.rate                      0.869429                       # Number of inst fetches per cycle
system.cpu00.decode.IdleCycles                 258953                       # Number of cycles decode is idle
system.cpu00.decode.BlockedCycles             7145878                       # Number of cycles decode is blocked
system.cpu00.decode.RunCycles                  334382                       # Number of cycles decode is running
system.cpu00.decode.UnblockCycles              507189                       # Number of cycles decode is unblocking
system.cpu00.decode.SquashCycles                22577                       # Number of cycles decode is squashing
system.cpu00.decode.BranchResolved              81639                       # Number of times decode resolved a branch
system.cpu00.decode.BranchMispred                1705                       # Number of times decode detected a branch misprediction
system.cpu00.decode.DecodedInsts              6492370                       # Number of instructions handled by decode
system.cpu00.decode.SquashedInsts                7018                       # Number of squashed instructions handled by decode
system.cpu00.rename.SquashCycles                22577                       # Number of cycles rename is squashing
system.cpu00.rename.IdleCycles                 381552                       # Number of cycles rename is idle
system.cpu00.rename.BlockCycles               3086242                       # Number of cycles rename is blocking
system.cpu00.rename.serializeStallCycles        93763                       # count of cycles rename stalled for serializing inst
system.cpu00.rename.RunCycles                  641103                       # Number of cycles rename is running
system.cpu00.rename.UnblockCycles             4043742                       # Number of cycles rename is unblocking
system.cpu00.rename.RenamedInsts              6325936                       # Number of instructions processed by rename
system.cpu00.rename.ROBFullEvents                2730                       # Number of times rename has blocked due to ROB full
system.cpu00.rename.IQFullEvents              2088681                       # Number of times rename has blocked due to IQ full
system.cpu00.rename.LQFullEvents              1669883                       # Number of times rename has blocked due to LQ full
system.cpu00.rename.SQFullEvents               250551                       # Number of times rename has blocked due to SQ full
system.cpu00.rename.RenamedOperands           5427124                       # Number of destination operands rename has renamed
system.cpu00.rename.RenameLookups             9149766                       # Number of register rename lookups that rename has made
system.cpu00.rename.int_rename_lookups        5131521                       # Number of integer rename lookups
system.cpu00.rename.fp_rename_lookups         4017993                       # Number of floating rename lookups
system.cpu00.rename.CommittedMaps             3930965                       # Number of HB maps that are committed
system.cpu00.rename.UndoneMaps                1496159                       # Number of HB maps that are undone due to squashing
system.cpu00.rename.serializingInsts             2289                       # count of serializing insts renamed
system.cpu00.rename.tempSerializingInsts         1948                       # count of temporary serializing insts renamed
system.cpu00.rename.skidInsts                 3386158                       # count of insts added to the skid buffer
system.cpu00.memDep0.insertedLoads            1197980                       # Number of loads inserted to the mem dependence unit.
system.cpu00.memDep0.insertedStores            532660                       # Number of stores inserted to the mem dependence unit.
system.cpu00.memDep0.conflictingLoads          371172                       # Number of conflicting loads.
system.cpu00.memDep0.conflictingStores         201428                       # Number of conflicting stores.
system.cpu00.iq.iqInstsAdded                  6223063                       # Number of instructions added to the IQ (excludes non-spec)
system.cpu00.iq.iqNonSpecInstsAdded              3192                       # Number of non-speculative instructions added to the IQ
system.cpu00.iq.iqInstsIssued                 5931422                       # Number of instructions issued
system.cpu00.iq.iqSquashedInstsIssued            7049                       # Number of squashed instructions issued
system.cpu00.iq.iqSquashedInstsExamined       1880578                       # Number of squashed instructions iterated over during squash; mainly for profiling
system.cpu00.iq.iqSquashedOperandsExamined       771616                       # Number of squashed operands that are examined and possibly removed from graph
system.cpu00.iq.iqSquashedNonSpecRemoved          487                       # Number of squashed non-spec instructions that were removed
system.cpu00.iq.issued_per_cycle::samples      8268979                       # Number of insts issued each cycle
system.cpu00.iq.issued_per_cycle::mean       0.717310                       # Number of insts issued each cycle
system.cpu00.iq.issued_per_cycle::stdev      1.208900                       # Number of insts issued each cycle
system.cpu00.iq.issued_per_cycle::underflows            0      0.00%      0.00% # Number of insts issued each cycle
system.cpu00.iq.issued_per_cycle::0           4791409     57.94%     57.94% # Number of insts issued each cycle
system.cpu00.iq.issued_per_cycle::1           2249234     27.20%     85.15% # Number of insts issued each cycle
system.cpu00.iq.issued_per_cycle::2            715096      8.65%     93.79% # Number of insts issued each cycle
system.cpu00.iq.issued_per_cycle::3            216569      2.62%     96.41% # Number of insts issued each cycle
system.cpu00.iq.issued_per_cycle::4            114981      1.39%     97.80% # Number of insts issued each cycle
system.cpu00.iq.issued_per_cycle::5             65319      0.79%     98.59% # Number of insts issued each cycle
system.cpu00.iq.issued_per_cycle::6             44048      0.53%     99.13% # Number of insts issued each cycle
system.cpu00.iq.issued_per_cycle::7             27102      0.33%     99.45% # Number of insts issued each cycle
system.cpu00.iq.issued_per_cycle::8             45221      0.55%    100.00% # Number of insts issued each cycle
system.cpu00.iq.issued_per_cycle::overflows            0      0.00%    100.00% # Number of insts issued each cycle
system.cpu00.iq.issued_per_cycle::min_value            0                       # Number of insts issued each cycle
system.cpu00.iq.issued_per_cycle::max_value            8                       # Number of insts issued each cycle
system.cpu00.iq.issued_per_cycle::total       8268979                       # Number of insts issued each cycle
system.cpu00.iq.fu_full::No_OpClass                 0      0.00%      0.00% # attempts to use FU when none available
system.cpu00.iq.fu_full::IntAlu                  4573     10.14%     10.14% # attempts to use FU when none available
system.cpu00.iq.fu_full::IntMult                    0      0.00%     10.14% # attempts to use FU when none available
system.cpu00.iq.fu_full::IntDiv                     0      0.00%     10.14% # attempts to use FU when none available
system.cpu00.iq.fu_full::FloatAdd                   0      0.00%     10.14% # attempts to use FU when none available
system.cpu00.iq.fu_full::FloatCmp                   0      0.00%     10.14% # attempts to use FU when none available
system.cpu00.iq.fu_full::FloatCvt                   0      0.00%     10.14% # attempts to use FU when none available
system.cpu00.iq.fu_full::FloatMult               8237     18.27%     28.41% # attempts to use FU when none available
system.cpu00.iq.fu_full::FloatDiv                   0      0.00%     28.41% # attempts to use FU when none available
system.cpu00.iq.fu_full::FloatSqrt                  0      0.00%     28.41% # attempts to use FU when none available
system.cpu00.iq.fu_full::SimdAdd                    0      0.00%     28.41% # attempts to use FU when none available
system.cpu00.iq.fu_full::SimdAddAcc                 0      0.00%     28.41% # attempts to use FU when none available
system.cpu00.iq.fu_full::SimdAlu                    0      0.00%     28.41% # attempts to use FU when none available
system.cpu00.iq.fu_full::SimdCmp                    0      0.00%     28.41% # attempts to use FU when none available
system.cpu00.iq.fu_full::SimdCvt                    0      0.00%     28.41% # attempts to use FU when none available
system.cpu00.iq.fu_full::SimdMisc                   0      0.00%     28.41% # attempts to use FU when none available
system.cpu00.iq.fu_full::SimdMult                   0      0.00%     28.41% # attempts to use FU when none available
system.cpu00.iq.fu_full::SimdMultAcc                0      0.00%     28.41% # attempts to use FU when none available
system.cpu00.iq.fu_full::SimdShift                  0      0.00%     28.41% # attempts to use FU when none available
system.cpu00.iq.fu_full::SimdShiftAcc               0      0.00%     28.41% # attempts to use FU when none available
system.cpu00.iq.fu_full::SimdSqrt                   0      0.00%     28.41% # attempts to use FU when none available
system.cpu00.iq.fu_full::SimdFloatAdd               0      0.00%     28.41% # attempts to use FU when none available
system.cpu00.iq.fu_full::SimdFloatAlu               0      0.00%     28.41% # attempts to use FU when none available
system.cpu00.iq.fu_full::SimdFloatCmp               0      0.00%     28.41% # attempts to use FU when none available
system.cpu00.iq.fu_full::SimdFloatCvt               0      0.00%     28.41% # attempts to use FU when none available
system.cpu00.iq.fu_full::SimdFloatDiv               0      0.00%     28.41% # attempts to use FU when none available
system.cpu00.iq.fu_full::SimdFloatMisc              0      0.00%     28.41% # attempts to use FU when none available
system.cpu00.iq.fu_full::SimdFloatMult              0      0.00%     28.41% # attempts to use FU when none available
system.cpu00.iq.fu_full::SimdFloatMultAcc            0      0.00%     28.41% # attempts to use FU when none available
system.cpu00.iq.fu_full::SimdFloatSqrt              0      0.00%     28.41% # attempts to use FU when none available
system.cpu00.iq.fu_full::MemRead                25254     56.02%     84.43% # attempts to use FU when none available
system.cpu00.iq.fu_full::MemWrite                7019     15.57%    100.00% # attempts to use FU when none available
system.cpu00.iq.fu_full::IprAccess                  0      0.00%    100.00% # attempts to use FU when none available
system.cpu00.iq.fu_full::InstPrefetch               0      0.00%    100.00% # attempts to use FU when none available
system.cpu00.iq.FU_type_0::No_OpClass               0      0.00%      0.00% # Type of FU issued
system.cpu00.iq.FU_type_0::IntAlu             1756722     29.62%     29.62% # Type of FU issued
system.cpu00.iq.FU_type_0::IntMult                251      0.00%     29.62% # Type of FU issued
system.cpu00.iq.FU_type_0::IntDiv                   0      0.00%     29.62% # Type of FU issued
system.cpu00.iq.FU_type_0::FloatAdd           1713573     28.89%     58.51% # Type of FU issued
system.cpu00.iq.FU_type_0::FloatCmp                11      0.00%     58.51% # Type of FU issued
system.cpu00.iq.FU_type_0::FloatCvt                 0      0.00%     58.51% # Type of FU issued
system.cpu00.iq.FU_type_0::FloatMult           852373     14.37%     72.88% # Type of FU issued
system.cpu00.iq.FU_type_0::FloatDiv                 0      0.00%     72.88% # Type of FU issued
system.cpu00.iq.FU_type_0::FloatSqrt                0      0.00%     72.88% # Type of FU issued
system.cpu00.iq.FU_type_0::SimdAdd                  0      0.00%     72.88% # Type of FU issued
system.cpu00.iq.FU_type_0::SimdAddAcc               0      0.00%     72.88% # Type of FU issued
system.cpu00.iq.FU_type_0::SimdAlu                  0      0.00%     72.88% # Type of FU issued
system.cpu00.iq.FU_type_0::SimdCmp                  0      0.00%     72.88% # Type of FU issued
system.cpu00.iq.FU_type_0::SimdCvt                  0      0.00%     72.88% # Type of FU issued
system.cpu00.iq.FU_type_0::SimdMisc                 0      0.00%     72.88% # Type of FU issued
system.cpu00.iq.FU_type_0::SimdMult                 0      0.00%     72.88% # Type of FU issued
system.cpu00.iq.FU_type_0::SimdMultAcc              0      0.00%     72.88% # Type of FU issued
system.cpu00.iq.FU_type_0::SimdShift                0      0.00%     72.88% # Type of FU issued
system.cpu00.iq.FU_type_0::SimdShiftAcc             0      0.00%     72.88% # Type of FU issued
system.cpu00.iq.FU_type_0::SimdSqrt                 0      0.00%     72.88% # Type of FU issued
system.cpu00.iq.FU_type_0::SimdFloatAdd             0      0.00%     72.88% # Type of FU issued
system.cpu00.iq.FU_type_0::SimdFloatAlu             0      0.00%     72.88% # Type of FU issued
system.cpu00.iq.FU_type_0::SimdFloatCmp             0      0.00%     72.88% # Type of FU issued
system.cpu00.iq.FU_type_0::SimdFloatCvt             0      0.00%     72.88% # Type of FU issued
system.cpu00.iq.FU_type_0::SimdFloatDiv             0      0.00%     72.88% # Type of FU issued
system.cpu00.iq.FU_type_0::SimdFloatMisc            0      0.00%     72.88% # Type of FU issued
system.cpu00.iq.FU_type_0::SimdFloatMult            0      0.00%     72.88% # Type of FU issued
system.cpu00.iq.FU_type_0::SimdFloatMultAcc            0      0.00%     72.88% # Type of FU issued
system.cpu00.iq.FU_type_0::SimdFloatSqrt            0      0.00%     72.88% # Type of FU issued
system.cpu00.iq.FU_type_0::MemRead            1190813     20.08%     92.96% # Type of FU issued
system.cpu00.iq.FU_type_0::MemWrite            417679      7.04%    100.00% # Type of FU issued
system.cpu00.iq.FU_type_0::IprAccess                0      0.00%    100.00% # Type of FU issued
system.cpu00.iq.FU_type_0::InstPrefetch             0      0.00%    100.00% # Type of FU issued
system.cpu00.iq.FU_type_0::total              5931422                       # Type of FU issued
system.cpu00.iq.rate                         0.699145                       # Inst issue rate
system.cpu00.iq.fu_busy_cnt                     45083                       # FU busy when requested
system.cpu00.iq.fu_busy_rate                 0.007601                       # FU busy rate (busy events/executed inst)
system.cpu00.iq.int_inst_queue_reads         14452204                       # Number of integer instruction queue reads
system.cpu00.iq.int_inst_queue_writes         5243352                       # Number of integer instruction queue writes
system.cpu00.iq.int_inst_queue_wakeup_accesses      2877818                       # Number of integer instruction queue wakeup accesses
system.cpu00.iq.fp_inst_queue_reads           5731751                       # Number of floating instruction queue reads
system.cpu00.iq.fp_inst_queue_writes          2863974                       # Number of floating instruction queue writes
system.cpu00.iq.fp_inst_queue_wakeup_accesses      2861635                       # Number of floating instruction queue wakeup accesses
system.cpu00.iq.int_alu_accesses              3106468                       # Number of integer alu accesses
system.cpu00.iq.fp_alu_accesses               2870037                       # Number of floating point alu accesses
system.cpu00.iew.lsq.thread0.forwLoads           9585                       # Number of loads that had data forwarded from stores
system.cpu00.iew.lsq.thread0.invAddrLoads            0                       # Number of loads ignored due to an invalid address
system.cpu00.iew.lsq.thread0.squashedLoads       595219                       # Number of loads squashed
system.cpu00.iew.lsq.thread0.ignoredResponses           46                       # Number of memory responses ignored because the instruction is squashed
system.cpu00.iew.lsq.thread0.memOrderViolation          499                       # Number of memory ordering violations
system.cpu00.iew.lsq.thread0.squashedStores       320530                       # Number of stores squashed
system.cpu00.iew.lsq.thread0.invAddrSwpfs            0                       # Number of software prefetches ignored due to an invalid address
system.cpu00.iew.lsq.thread0.blockedLoads            0                       # Number of blocked loads due to partial load-store forwarding
system.cpu00.iew.lsq.thread0.rescheduledLoads          258                       # Number of loads that were rescheduled
system.cpu00.iew.lsq.thread0.cacheBlocked        98820                       # Number of times an access to memory failed due to the cache being blocked
system.cpu00.iew.iewIdleCycles                      0                       # Number of cycles IEW is idle
system.cpu00.iew.iewSquashCycles                22577                       # Number of cycles IEW is squashing
system.cpu00.iew.iewBlockCycles               1005961                       # Number of cycles IEW is blocking
system.cpu00.iew.iewUnblockCycles              760760                       # Number of cycles IEW is unblocking
system.cpu00.iew.iewDispatchedInsts           6292420                       # Number of instructions dispatched to IQ
system.cpu00.iew.iewDispSquashedInsts            1219                       # Number of squashed instructions skipped by dispatch
system.cpu00.iew.iewDispLoadInsts             1197980                       # Number of dispatched load instructions
system.cpu00.iew.iewDispStoreInsts             532660                       # Number of dispatched store instructions
system.cpu00.iew.iewDispNonSpecInsts             1865                       # Number of dispatched non-speculative instructions
system.cpu00.iew.iewIQFullEvents                44111                       # Number of times the IQ has become full, causing a stall
system.cpu00.iew.iewLSQFullEvents              610757                       # Number of times the LSQ has become full, causing a stall
system.cpu00.iew.memOrderViolationEvents          499                       # Number of memory order violations
system.cpu00.iew.predictedTakenIncorrect         1485                       # Number of branches that were predicted taken incorrectly
system.cpu00.iew.predictedNotTakenIncorrect         2944                       # Number of branches that were predicted not taken incorrectly
system.cpu00.iew.branchMispredicts               4429                       # Number of branch mispredicts detected at execute
system.cpu00.iew.iewExecutedInsts             5922518                       # Number of executed instructions
system.cpu00.iew.iewExecLoadInsts             1186213                       # Number of load instructions executed
system.cpu00.iew.iewExecSquashedInsts            8904                       # Number of squashed instructions skipped in execute
system.cpu00.iew.exec_swp                           0                       # number of swp insts executed
system.cpu00.iew.exec_nop                       66165                       # number of nop insts executed
system.cpu00.iew.exec_refs                    1601786                       # number of memory reference insts executed
system.cpu00.iew.exec_branches                 287767                       # Number of branches executed
system.cpu00.iew.exec_stores                   415573                       # Number of stores executed
system.cpu00.iew.exec_rate                   0.698095                       # Inst execution rate
system.cpu00.iew.wb_sent                      5809640                       # cumulative count of insts sent to commit
system.cpu00.iew.wb_count                     5739453                       # cumulative count of insts written-back
system.cpu00.iew.wb_producers                 4531907                       # num instructions producing a value
system.cpu00.iew.wb_consumers                 5926635                       # num instructions consuming a value
system.cpu00.iew.wb_rate                     0.676517                       # insts written-back per cycle
system.cpu00.iew.wb_fanout                   0.764668                       # average fanout of values written-back
system.cpu00.commit.commitSquashedInsts       1877667                       # The number of squashed insts skipped by commit
system.cpu00.commit.commitNonSpecStalls          2705                       # The number of times commit has been forced to stall to communicate backwards
system.cpu00.commit.branchMispredicts            3653                       # The number of times a branch was mispredicted
system.cpu00.commit.committed_per_cycle::samples      8020897                       # Number of insts commited each cycle
system.cpu00.commit.committed_per_cycle::mean     0.549061                       # Number of insts commited each cycle
system.cpu00.commit.committed_per_cycle::stdev     1.301722                       # Number of insts commited each cycle
system.cpu00.commit.committed_per_cycle::underflows            0      0.00%      0.00% # Number of insts commited each cycle
system.cpu00.commit.committed_per_cycle::0      5798501     72.29%     72.29% # Number of insts commited each cycle
system.cpu00.commit.committed_per_cycle::1      1332905     16.62%     88.91% # Number of insts commited each cycle
system.cpu00.commit.committed_per_cycle::2       495301      6.18%     95.09% # Number of insts commited each cycle
system.cpu00.commit.committed_per_cycle::3       140337      1.75%     96.84% # Number of insts commited each cycle
system.cpu00.commit.committed_per_cycle::4        20483      0.26%     97.09% # Number of insts commited each cycle
system.cpu00.commit.committed_per_cycle::5        81042      1.01%     98.10% # Number of insts commited each cycle
system.cpu00.commit.committed_per_cycle::6        12118      0.15%     98.25% # Number of insts commited each cycle
system.cpu00.commit.committed_per_cycle::7        22088      0.28%     98.53% # Number of insts commited each cycle
system.cpu00.commit.committed_per_cycle::8       118122      1.47%    100.00% # Number of insts commited each cycle
system.cpu00.commit.committed_per_cycle::overflows            0      0.00%    100.00% # Number of insts commited each cycle
system.cpu00.commit.committed_per_cycle::min_value            0                       # Number of insts commited each cycle
system.cpu00.commit.committed_per_cycle::max_value            8                       # Number of insts commited each cycle
system.cpu00.commit.committed_per_cycle::total      8020897                       # Number of insts commited each cycle
system.cpu00.commit.committedInsts            4403960                       # Number of instructions committed
system.cpu00.commit.committedOps              4403960                       # Number of ops (including micro ops) committed
system.cpu00.commit.swp_count                       0                       # Number of s/w prefetches committed
system.cpu00.commit.refs                       814891                       # Number of memory references committed
system.cpu00.commit.loads                      602761                       # Number of loads committed
system.cpu00.commit.membars                      1140                       # Number of memory barriers committed
system.cpu00.commit.branches                   242009                       # Number of branches committed
system.cpu00.commit.fp_insts                  2860888                       # Number of committed floating point instructions.
system.cpu00.commit.int_insts                 1784589                       # Number of committed integer instructions.
system.cpu00.commit.function_calls              75186                       # Number of function calls committed.
system.cpu00.commit.op_class_0::No_OpClass        58284      1.32%      1.32% # Class of committed instruction
system.cpu00.commit.op_class_0::IntAlu         964072     21.89%     23.21% # Class of committed instruction
system.cpu00.commit.op_class_0::IntMult           244      0.01%     23.22% # Class of committed instruction
system.cpu00.commit.op_class_0::IntDiv              0      0.00%     23.22% # Class of committed instruction
system.cpu00.commit.op_class_0::FloatAdd      1713053     38.90%     62.12% # Class of committed instruction
system.cpu00.commit.op_class_0::FloatCmp           10      0.00%     62.12% # Class of committed instruction
system.cpu00.commit.op_class_0::FloatCvt            0      0.00%     62.12% # Class of committed instruction
system.cpu00.commit.op_class_0::FloatMult       852265     19.35%     81.47% # Class of committed instruction
system.cpu00.commit.op_class_0::FloatDiv            0      0.00%     81.47% # Class of committed instruction
system.cpu00.commit.op_class_0::FloatSqrt            0      0.00%     81.47% # Class of committed instruction
system.cpu00.commit.op_class_0::SimdAdd             0      0.00%     81.47% # Class of committed instruction
system.cpu00.commit.op_class_0::SimdAddAcc            0      0.00%     81.47% # Class of committed instruction
system.cpu00.commit.op_class_0::SimdAlu             0      0.00%     81.47% # Class of committed instruction
system.cpu00.commit.op_class_0::SimdCmp             0      0.00%     81.47% # Class of committed instruction
system.cpu00.commit.op_class_0::SimdCvt             0      0.00%     81.47% # Class of committed instruction
system.cpu00.commit.op_class_0::SimdMisc            0      0.00%     81.47% # Class of committed instruction
system.cpu00.commit.op_class_0::SimdMult            0      0.00%     81.47% # Class of committed instruction
system.cpu00.commit.op_class_0::SimdMultAcc            0      0.00%     81.47% # Class of committed instruction
system.cpu00.commit.op_class_0::SimdShift            0      0.00%     81.47% # Class of committed instruction
system.cpu00.commit.op_class_0::SimdShiftAcc            0      0.00%     81.47% # Class of committed instruction
system.cpu00.commit.op_class_0::SimdSqrt            0      0.00%     81.47% # Class of committed instruction
system.cpu00.commit.op_class_0::SimdFloatAdd            0      0.00%     81.47% # Class of committed instruction
system.cpu00.commit.op_class_0::SimdFloatAlu            0      0.00%     81.47% # Class of committed instruction
system.cpu00.commit.op_class_0::SimdFloatCmp            0      0.00%     81.47% # Class of committed instruction
system.cpu00.commit.op_class_0::SimdFloatCvt            0      0.00%     81.47% # Class of committed instruction
system.cpu00.commit.op_class_0::SimdFloatDiv            0      0.00%     81.47% # Class of committed instruction
system.cpu00.commit.op_class_0::SimdFloatMisc            0      0.00%     81.47% # Class of committed instruction
system.cpu00.commit.op_class_0::SimdFloatMult            0      0.00%     81.47% # Class of committed instruction
system.cpu00.commit.op_class_0::SimdFloatMultAcc            0      0.00%     81.47% # Class of committed instruction
system.cpu00.commit.op_class_0::SimdFloatSqrt            0      0.00%     81.47% # Class of committed instruction
system.cpu00.commit.op_class_0::MemRead        603901     13.71%     95.18% # Class of committed instruction
system.cpu00.commit.op_class_0::MemWrite       212131      4.82%    100.00% # Class of committed instruction
system.cpu00.commit.op_class_0::IprAccess            0      0.00%    100.00% # Class of committed instruction
system.cpu00.commit.op_class_0::InstPrefetch            0      0.00%    100.00% # Class of committed instruction
system.cpu00.commit.op_class_0::total         4403960                       # Class of committed instruction
system.cpu00.commit.bw_lim_events              118122                       # number cycles where commit BW limit reached
system.cpu00.rob.rob_reads                   13944149                       # The number of ROB reads
system.cpu00.rob.rob_writes                  12811434                       # The number of ROB writes
system.cpu00.timesIdled                          1476                       # Number of times that the entire CPU went into an idle state and unscheduled itself
system.cpu00.idleCycles                        214844                       # Total number of cycles that the CPU has spent unscheduled due to idling
system.cpu00.quiesceCycles                     287991                       # Total number of cycles that CPU has spent quiesced or waiting for an interrupt
system.cpu00.committedInsts                   4345676                       # Number of Instructions Simulated
system.cpu00.committedOps                     4345676                       # Number of Ops (including micro ops) Simulated
system.cpu00.cpi                             1.952245                       # CPI: Cycles Per Instruction
system.cpu00.cpi_total                       1.952245                       # CPI: Total CPI of All Threads
system.cpu00.ipc                             0.512231                       # IPC: Instructions Per Cycle
system.cpu00.ipc_total                       0.512231                       # IPC: Total IPC of All Threads
system.cpu00.int_regfile_reads                4557125                       # number of integer regfile reads
system.cpu00.int_regfile_writes               2268721                       # number of integer regfile writes
system.cpu00.fp_regfile_reads                 4016757                       # number of floating regfile reads
system.cpu00.fp_regfile_writes                2836037                       # number of floating regfile writes
system.cpu00.misc_regfile_reads                  3018                       # number of misc regfile reads
system.cpu00.misc_regfile_writes                 2493                       # number of misc regfile writes
system.cpu00.dcache.tags.replacements           69253                       # number of replacements
system.cpu00.dcache.tags.tagsinuse          63.785544                       # Cycle average of tags in use
system.cpu00.dcache.tags.total_refs           1137042                       # Total number of references to valid blocks.
system.cpu00.dcache.tags.sampled_refs           69317                       # Sample count of references to valid blocks.
system.cpu00.dcache.tags.avg_refs           16.403509                       # Average number of references to valid blocks.
system.cpu00.dcache.tags.warmup_cycle        86665167                       # Cycle when the warmup percentage was hit.
system.cpu00.dcache.tags.occ_blocks::cpu00.data    63.785544                       # Average occupied blocks per requestor
system.cpu00.dcache.tags.occ_percent::cpu00.data     0.996649                       # Average percentage of cache occupancy
system.cpu00.dcache.tags.occ_percent::total     0.996649                       # Average percentage of cache occupancy
system.cpu00.dcache.tags.occ_task_id_blocks::1024           64                       # Occupied blocks per task id
system.cpu00.dcache.tags.age_task_id_blocks_1024::0           47                       # Occupied blocks per task id
system.cpu00.dcache.tags.age_task_id_blocks_1024::1           16                       # Occupied blocks per task id
system.cpu00.dcache.tags.age_task_id_blocks_1024::2            1                       # Occupied blocks per task id
system.cpu00.dcache.tags.occ_task_id_percent::1024            1                       # Percentage of cache occupancy per task id
system.cpu00.dcache.tags.tag_accesses         2653243                       # Number of tag accesses
system.cpu00.dcache.tags.data_accesses        2653243                       # Number of data accesses
system.cpu00.dcache.ReadReq_hits::cpu00.data      1000499                       # number of ReadReq hits
system.cpu00.dcache.ReadReq_hits::total       1000499                       # number of ReadReq hits
system.cpu00.dcache.WriteReq_hits::cpu00.data       134246                       # number of WriteReq hits
system.cpu00.dcache.WriteReq_hits::total       134246                       # number of WriteReq hits
system.cpu00.dcache.LoadLockedReq_hits::cpu00.data          973                       # number of LoadLockedReq hits
system.cpu00.dcache.LoadLockedReq_hits::total          973                       # number of LoadLockedReq hits
system.cpu00.dcache.StoreCondReq_hits::cpu00.data         1233                       # number of StoreCondReq hits
system.cpu00.dcache.StoreCondReq_hits::total         1233                       # number of StoreCondReq hits
system.cpu00.dcache.demand_hits::cpu00.data      1134745                       # number of demand (read+write) hits
system.cpu00.dcache.demand_hits::total        1134745                       # number of demand (read+write) hits
system.cpu00.dcache.overall_hits::cpu00.data      1134745                       # number of overall hits
system.cpu00.dcache.overall_hits::total       1134745                       # number of overall hits
system.cpu00.dcache.ReadReq_misses::cpu00.data        77942                       # number of ReadReq misses
system.cpu00.dcache.ReadReq_misses::total        77942                       # number of ReadReq misses
system.cpu00.dcache.WriteReq_misses::cpu00.data        76639                       # number of WriteReq misses
system.cpu00.dcache.WriteReq_misses::total        76639                       # number of WriteReq misses
system.cpu00.dcache.LoadLockedReq_misses::cpu00.data          322                       # number of LoadLockedReq misses
system.cpu00.dcache.LoadLockedReq_misses::total          322                       # number of LoadLockedReq misses
system.cpu00.dcache.StoreCondReq_misses::cpu00.data           12                       # number of StoreCondReq misses
system.cpu00.dcache.StoreCondReq_misses::total           12                       # number of StoreCondReq misses
system.cpu00.dcache.demand_misses::cpu00.data       154581                       # number of demand (read+write) misses
system.cpu00.dcache.demand_misses::total       154581                       # number of demand (read+write) misses
system.cpu00.dcache.overall_misses::cpu00.data       154581                       # number of overall misses
system.cpu00.dcache.overall_misses::total       154581                       # number of overall misses
system.cpu00.dcache.ReadReq_miss_latency::cpu00.data   6932182392                       # number of ReadReq miss cycles
system.cpu00.dcache.ReadReq_miss_latency::total   6932182392                       # number of ReadReq miss cycles
system.cpu00.dcache.WriteReq_miss_latency::cpu00.data  10882201977                       # number of WriteReq miss cycles
system.cpu00.dcache.WriteReq_miss_latency::total  10882201977                       # number of WriteReq miss cycles
system.cpu00.dcache.LoadLockedReq_miss_latency::cpu00.data      3868452                       # number of LoadLockedReq miss cycles
system.cpu00.dcache.LoadLockedReq_miss_latency::total      3868452                       # number of LoadLockedReq miss cycles
system.cpu00.dcache.StoreCondReq_miss_latency::cpu00.data        90558                       # number of StoreCondReq miss cycles
system.cpu00.dcache.StoreCondReq_miss_latency::total        90558                       # number of StoreCondReq miss cycles
system.cpu00.dcache.demand_miss_latency::cpu00.data  17814384369                       # number of demand (read+write) miss cycles
system.cpu00.dcache.demand_miss_latency::total  17814384369                       # number of demand (read+write) miss cycles
system.cpu00.dcache.overall_miss_latency::cpu00.data  17814384369                       # number of overall miss cycles
system.cpu00.dcache.overall_miss_latency::total  17814384369                       # number of overall miss cycles
system.cpu00.dcache.ReadReq_accesses::cpu00.data      1078441                       # number of ReadReq accesses(hits+misses)
system.cpu00.dcache.ReadReq_accesses::total      1078441                       # number of ReadReq accesses(hits+misses)
system.cpu00.dcache.WriteReq_accesses::cpu00.data       210885                       # number of WriteReq accesses(hits+misses)
system.cpu00.dcache.WriteReq_accesses::total       210885                       # number of WriteReq accesses(hits+misses)
system.cpu00.dcache.LoadLockedReq_accesses::cpu00.data         1295                       # number of LoadLockedReq accesses(hits+misses)
system.cpu00.dcache.LoadLockedReq_accesses::total         1295                       # number of LoadLockedReq accesses(hits+misses)
system.cpu00.dcache.StoreCondReq_accesses::cpu00.data         1245                       # number of StoreCondReq accesses(hits+misses)
system.cpu00.dcache.StoreCondReq_accesses::total         1245                       # number of StoreCondReq accesses(hits+misses)
system.cpu00.dcache.demand_accesses::cpu00.data      1289326                       # number of demand (read+write) accesses
system.cpu00.dcache.demand_accesses::total      1289326                       # number of demand (read+write) accesses
system.cpu00.dcache.overall_accesses::cpu00.data      1289326                       # number of overall (read+write) accesses
system.cpu00.dcache.overall_accesses::total      1289326                       # number of overall (read+write) accesses
system.cpu00.dcache.ReadReq_miss_rate::cpu00.data     0.072273                       # miss rate for ReadReq accesses
system.cpu00.dcache.ReadReq_miss_rate::total     0.072273                       # miss rate for ReadReq accesses
system.cpu00.dcache.WriteReq_miss_rate::cpu00.data     0.363416                       # miss rate for WriteReq accesses
system.cpu00.dcache.WriteReq_miss_rate::total     0.363416                       # miss rate for WriteReq accesses
system.cpu00.dcache.LoadLockedReq_miss_rate::cpu00.data     0.248649                       # miss rate for LoadLockedReq accesses
system.cpu00.dcache.LoadLockedReq_miss_rate::total     0.248649                       # miss rate for LoadLockedReq accesses
system.cpu00.dcache.StoreCondReq_miss_rate::cpu00.data     0.009639                       # miss rate for StoreCondReq accesses
system.cpu00.dcache.StoreCondReq_miss_rate::total     0.009639                       # miss rate for StoreCondReq accesses
system.cpu00.dcache.demand_miss_rate::cpu00.data     0.119893                       # miss rate for demand accesses
system.cpu00.dcache.demand_miss_rate::total     0.119893                       # miss rate for demand accesses
system.cpu00.dcache.overall_miss_rate::cpu00.data     0.119893                       # miss rate for overall accesses
system.cpu00.dcache.overall_miss_rate::total     0.119893                       # miss rate for overall accesses
system.cpu00.dcache.ReadReq_avg_miss_latency::cpu00.data 88940.268302                       # average ReadReq miss latency
system.cpu00.dcache.ReadReq_avg_miss_latency::total 88940.268302                       # average ReadReq miss latency
system.cpu00.dcache.WriteReq_avg_miss_latency::cpu00.data 141993.005872                       # average WriteReq miss latency
system.cpu00.dcache.WriteReq_avg_miss_latency::total 141993.005872                       # average WriteReq miss latency
system.cpu00.dcache.LoadLockedReq_avg_miss_latency::cpu00.data 12013.826087                       # average LoadLockedReq miss latency
system.cpu00.dcache.LoadLockedReq_avg_miss_latency::total 12013.826087                       # average LoadLockedReq miss latency
system.cpu00.dcache.StoreCondReq_avg_miss_latency::cpu00.data  7546.500000                       # average StoreCondReq miss latency
system.cpu00.dcache.StoreCondReq_avg_miss_latency::total  7546.500000                       # average StoreCondReq miss latency
system.cpu00.dcache.demand_avg_miss_latency::cpu00.data 115243.040018                       # average overall miss latency
system.cpu00.dcache.demand_avg_miss_latency::total 115243.040018                       # average overall miss latency
system.cpu00.dcache.overall_avg_miss_latency::cpu00.data 115243.040018                       # average overall miss latency
system.cpu00.dcache.overall_avg_miss_latency::total 115243.040018                       # average overall miss latency
system.cpu00.dcache.blocked_cycles::no_mshrs       358115                       # number of cycles access was blocked
system.cpu00.dcache.blocked_cycles::no_targets           88                       # number of cycles access was blocked
system.cpu00.dcache.blocked::no_mshrs           10935                       # number of cycles access was blocked
system.cpu00.dcache.blocked::no_targets            13                       # number of cycles access was blocked
system.cpu00.dcache.avg_blocked_cycles::no_mshrs    32.749428                       # average number of cycles each access was blocked
system.cpu00.dcache.avg_blocked_cycles::no_targets     6.769231                       # average number of cycles each access was blocked
system.cpu00.dcache.fast_writes                     0                       # number of fast writes performed
system.cpu00.dcache.cache_copies                    0                       # number of cache copies performed
system.cpu00.dcache.writebacks::writebacks        61042                       # number of writebacks
system.cpu00.dcache.writebacks::total           61042                       # number of writebacks
system.cpu00.dcache.ReadReq_mshr_hits::cpu00.data        47724                       # number of ReadReq MSHR hits
system.cpu00.dcache.ReadReq_mshr_hits::total        47724                       # number of ReadReq MSHR hits
system.cpu00.dcache.WriteReq_mshr_hits::cpu00.data        37473                       # number of WriteReq MSHR hits
system.cpu00.dcache.WriteReq_mshr_hits::total        37473                       # number of WriteReq MSHR hits
system.cpu00.dcache.LoadLockedReq_mshr_hits::cpu00.data          137                       # number of LoadLockedReq MSHR hits
system.cpu00.dcache.LoadLockedReq_mshr_hits::total          137                       # number of LoadLockedReq MSHR hits
system.cpu00.dcache.demand_mshr_hits::cpu00.data        85197                       # number of demand (read+write) MSHR hits
system.cpu00.dcache.demand_mshr_hits::total        85197                       # number of demand (read+write) MSHR hits
system.cpu00.dcache.overall_mshr_hits::cpu00.data        85197                       # number of overall MSHR hits
system.cpu00.dcache.overall_mshr_hits::total        85197                       # number of overall MSHR hits
system.cpu00.dcache.ReadReq_mshr_misses::cpu00.data        30218                       # number of ReadReq MSHR misses
system.cpu00.dcache.ReadReq_mshr_misses::total        30218                       # number of ReadReq MSHR misses
system.cpu00.dcache.WriteReq_mshr_misses::cpu00.data        39166                       # number of WriteReq MSHR misses
system.cpu00.dcache.WriteReq_mshr_misses::total        39166                       # number of WriteReq MSHR misses
system.cpu00.dcache.LoadLockedReq_mshr_misses::cpu00.data          185                       # number of LoadLockedReq MSHR misses
system.cpu00.dcache.LoadLockedReq_mshr_misses::total          185                       # number of LoadLockedReq MSHR misses
system.cpu00.dcache.StoreCondReq_mshr_misses::cpu00.data           12                       # number of StoreCondReq MSHR misses
system.cpu00.dcache.StoreCondReq_mshr_misses::total           12                       # number of StoreCondReq MSHR misses
system.cpu00.dcache.demand_mshr_misses::cpu00.data        69384                       # number of demand (read+write) MSHR misses
system.cpu00.dcache.demand_mshr_misses::total        69384                       # number of demand (read+write) MSHR misses
system.cpu00.dcache.overall_mshr_misses::cpu00.data        69384                       # number of overall MSHR misses
system.cpu00.dcache.overall_mshr_misses::total        69384                       # number of overall MSHR misses
system.cpu00.dcache.ReadReq_mshr_miss_latency::cpu00.data   2588279994                       # number of ReadReq MSHR miss cycles
system.cpu00.dcache.ReadReq_mshr_miss_latency::total   2588279994                       # number of ReadReq MSHR miss cycles
system.cpu00.dcache.WriteReq_mshr_miss_latency::cpu00.data   4874738846                       # number of WriteReq MSHR miss cycles
system.cpu00.dcache.WriteReq_mshr_miss_latency::total   4874738846                       # number of WriteReq MSHR miss cycles
system.cpu00.dcache.LoadLockedReq_mshr_miss_latency::cpu00.data      1803033                       # number of LoadLockedReq MSHR miss cycles
system.cpu00.dcache.LoadLockedReq_mshr_miss_latency::total      1803033                       # number of LoadLockedReq MSHR miss cycles
system.cpu00.dcache.StoreCondReq_mshr_miss_latency::cpu00.data        76626                       # number of StoreCondReq MSHR miss cycles
system.cpu00.dcache.StoreCondReq_mshr_miss_latency::total        76626                       # number of StoreCondReq MSHR miss cycles
system.cpu00.dcache.demand_mshr_miss_latency::cpu00.data   7463018840                       # number of demand (read+write) MSHR miss cycles
system.cpu00.dcache.demand_mshr_miss_latency::total   7463018840                       # number of demand (read+write) MSHR miss cycles
system.cpu00.dcache.overall_mshr_miss_latency::cpu00.data   7463018840                       # number of overall MSHR miss cycles
system.cpu00.dcache.overall_mshr_miss_latency::total   7463018840                       # number of overall MSHR miss cycles
system.cpu00.dcache.ReadReq_mshr_miss_rate::cpu00.data     0.028020                       # mshr miss rate for ReadReq accesses
system.cpu00.dcache.ReadReq_mshr_miss_rate::total     0.028020                       # mshr miss rate for ReadReq accesses
system.cpu00.dcache.WriteReq_mshr_miss_rate::cpu00.data     0.185722                       # mshr miss rate for WriteReq accesses
system.cpu00.dcache.WriteReq_mshr_miss_rate::total     0.185722                       # mshr miss rate for WriteReq accesses
system.cpu00.dcache.LoadLockedReq_mshr_miss_rate::cpu00.data     0.142857                       # mshr miss rate for LoadLockedReq accesses
system.cpu00.dcache.LoadLockedReq_mshr_miss_rate::total     0.142857                       # mshr miss rate for LoadLockedReq accesses
system.cpu00.dcache.StoreCondReq_mshr_miss_rate::cpu00.data     0.009639                       # mshr miss rate for StoreCondReq accesses
system.cpu00.dcache.StoreCondReq_mshr_miss_rate::total     0.009639                       # mshr miss rate for StoreCondReq accesses
system.cpu00.dcache.demand_mshr_miss_rate::cpu00.data     0.053814                       # mshr miss rate for demand accesses
system.cpu00.dcache.demand_mshr_miss_rate::total     0.053814                       # mshr miss rate for demand accesses
system.cpu00.dcache.overall_mshr_miss_rate::cpu00.data     0.053814                       # mshr miss rate for overall accesses
system.cpu00.dcache.overall_mshr_miss_rate::total     0.053814                       # mshr miss rate for overall accesses
system.cpu00.dcache.ReadReq_avg_mshr_miss_latency::cpu00.data 85653.583758                       # average ReadReq mshr miss latency
system.cpu00.dcache.ReadReq_avg_mshr_miss_latency::total 85653.583758                       # average ReadReq mshr miss latency
system.cpu00.dcache.WriteReq_avg_mshr_miss_latency::cpu00.data 124463.535873                       # average WriteReq mshr miss latency
system.cpu00.dcache.WriteReq_avg_mshr_miss_latency::total 124463.535873                       # average WriteReq mshr miss latency
system.cpu00.dcache.LoadLockedReq_avg_mshr_miss_latency::cpu00.data  9746.124324                       # average LoadLockedReq mshr miss latency
system.cpu00.dcache.LoadLockedReq_avg_mshr_miss_latency::total  9746.124324                       # average LoadLockedReq mshr miss latency
system.cpu00.dcache.StoreCondReq_avg_mshr_miss_latency::cpu00.data  6385.500000                       # average StoreCondReq mshr miss latency
system.cpu00.dcache.StoreCondReq_avg_mshr_miss_latency::total  6385.500000                       # average StoreCondReq mshr miss latency
system.cpu00.dcache.demand_avg_mshr_miss_latency::cpu00.data 107561.092471                       # average overall mshr miss latency
system.cpu00.dcache.demand_avg_mshr_miss_latency::total 107561.092471                       # average overall mshr miss latency
system.cpu00.dcache.overall_avg_mshr_miss_latency::cpu00.data 107561.092471                       # average overall mshr miss latency
system.cpu00.dcache.overall_avg_mshr_miss_latency::total 107561.092471                       # average overall mshr miss latency
system.cpu00.dcache.no_allocate_misses              0                       # Number of misses that were no-allocate
system.cpu00.icache.tags.replacements            7179                       # number of replacements
system.cpu00.icache.tags.tagsinuse         507.016018                       # Cycle average of tags in use
[...]
system.tol2bus.pkt_count_system.cpu06.dcache.mem_side::system.l2.cpu_side       163572                       # Packet count per connected master and slave (bytes)
system.tol2bus.pkt_count_system.cpu07.icache.mem_side::system.l2.cpu_side         1002                       # Packet count per connected master and slave (bytes)
system.tol2bus.pkt_count_system.cpu07.dcache.mem_side::system.l2.cpu_side       157718                       # Packet count per connected master and slave (bytes)
system.tol2bus.pkt_count_system.cpu08.icache.mem_side::system.l2.cpu_side          840                       # Packet count per connected master and slave (bytes)
system.tol2bus.pkt_count_system.cpu08.dcache.mem_side::system.l2.cpu_side       187239                       # Packet count per connected master and slave (bytes)
system.tol2bus.pkt_count_system.cpu09.icache.mem_side::system.l2.cpu_side          990                       # Packet count per connected master and slave (bytes)
system.tol2bus.pkt_count_system.cpu09.dcache.mem_side::system.l2.cpu_side       157551                       # Packet count per connected master and slave (bytes)
system.tol2bus.pkt_count_system.cpu10.icache.mem_side::system.l2.cpu_side          840                       # Packet count per connected master and slave (bytes)
system.tol2bus.pkt_count_system.cpu10.dcache.mem_side::system.l2.cpu_side       162154                       # Packet count per connected master and slave (bytes)
system.tol2bus.pkt_count_system.cpu11.icache.mem_side::system.l2.cpu_side          990                       # Packet count per connected master and slave (bytes)
system.tol2bus.pkt_count_system.cpu11.dcache.mem_side::system.l2.cpu_side       157004                       # Packet count per connected master and slave (bytes)
system.tol2bus.pkt_count_system.cpu12.icache.mem_side::system.l2.cpu_side         1001                       # Packet count per connected master and slave (bytes)
system.tol2bus.pkt_count_system.cpu12.dcache.mem_side::system.l2.cpu_side       174832                       # Packet count per connected master and slave (bytes)
system.tol2bus.pkt_count_system.cpu13.icache.mem_side::system.l2.cpu_side          842                       # Packet count per connected master and slave (bytes)
system.tol2bus.pkt_count_system.cpu13.dcache.mem_side::system.l2.cpu_side       156869                       # Packet count per connected master and slave (bytes)
system.tol2bus.pkt_count_system.cpu14.icache.mem_side::system.l2.cpu_side         1004                       # Packet count per connected master and slave (bytes)
system.tol2bus.pkt_count_system.cpu14.dcache.mem_side::system.l2.cpu_side       165174                       # Packet count per connected master and slave (bytes)
system.tol2bus.pkt_count_system.cpu15.icache.mem_side::system.l2.cpu_side          999                       # Packet count per connected master and slave (bytes)
system.tol2bus.pkt_count_system.cpu15.dcache.mem_side::system.l2.cpu_side       163408                       # Packet count per connected master and slave (bytes)
system.tol2bus.pkt_count::total               2693953                       # Packet count per connected master and slave (bytes)
system.tol2bus.pkt_size_system.cpu00.icache.mem_side::system.l2.cpu_side       951680                       # Cumulative packet size per connected master and slave (bytes)
system.tol2bus.pkt_size_system.cpu00.dcache.mem_side::system.l2.cpu_side      8325760                       # Cumulative packet size per connected master and slave (bytes)
system.tol2bus.pkt_size_system.cpu01.icache.mem_side::system.l2.cpu_side        37312                       # Cumulative packet size per connected master and slave (bytes)
system.tol2bus.pkt_size_system.cpu01.dcache.mem_side::system.l2.cpu_side      6373376                       # Cumulative packet size per connected master and slave (bytes)
system.tol2bus.pkt_size_system.cpu02.icache.mem_side::system.l2.cpu_side        29568                       # Cumulative packet size per connected master and slave (bytes)
system.tol2bus.pkt_size_system.cpu02.dcache.mem_side::system.l2.cpu_side      6606464                       # Cumulative packet size per connected master and slave (bytes)
system.tol2bus.pkt_size_system.cpu03.icache.mem_side::system.l2.cpu_side        34496                       # Cumulative packet size per connected master and slave (bytes)
system.tol2bus.pkt_size_system.cpu03.dcache.mem_side::system.l2.cpu_side      6387840                       # Cumulative packet size per connected master and slave (bytes)
system.tol2bus.pkt_size_system.cpu04.icache.mem_side::system.l2.cpu_side        28352                       # Cumulative packet size per connected master and slave (bytes)
system.tol2bus.pkt_size_system.cpu04.dcache.mem_side::system.l2.cpu_side      7127424                       # Cumulative packet size per connected master and slave (bytes)
system.tol2bus.pkt_size_system.cpu05.icache.mem_side::system.l2.cpu_side        34304                       # Cumulative packet size per connected master and slave (bytes)
system.tol2bus.pkt_size_system.cpu05.dcache.mem_side::system.l2.cpu_side      6394688                       # Cumulative packet size per connected master and slave (bytes)
system.tol2bus.pkt_size_system.cpu06.icache.mem_side::system.l2.cpu_side        28416                       # Cumulative packet size per connected master and slave (bytes)
system.tol2bus.pkt_size_system.cpu06.dcache.mem_side::system.l2.cpu_side      6672320                       # Cumulative packet size per connected master and slave (bytes)
system.tol2bus.pkt_size_system.cpu07.icache.mem_side::system.l2.cpu_side        34816                       # Cumulative packet size per connected master and slave (bytes)
system.tol2bus.pkt_size_system.cpu07.dcache.mem_side::system.l2.cpu_side      6447616                       # Cumulative packet size per connected master and slave (bytes)
system.tol2bus.pkt_size_system.cpu08.icache.mem_side::system.l2.cpu_side        28352                       # Cumulative packet size per connected master and slave (bytes)
system.tol2bus.pkt_size_system.cpu08.dcache.mem_side::system.l2.cpu_side      7674688                       # Cumulative packet size per connected master and slave (bytes)
system.tol2bus.pkt_size_system.cpu09.icache.mem_side::system.l2.cpu_side        34368                       # Cumulative packet size per connected master and slave (bytes)
system.tol2bus.pkt_size_system.cpu09.dcache.mem_side::system.l2.cpu_side      6504384                       # Cumulative packet size per connected master and slave (bytes)
system.tol2bus.pkt_size_system.cpu10.icache.mem_side::system.l2.cpu_side        28352                       # Cumulative packet size per connected master and slave (bytes)
system.tol2bus.pkt_size_system.cpu10.dcache.mem_side::system.l2.cpu_side      6618688                       # Cumulative packet size per connected master and slave (bytes)
system.tol2bus.pkt_size_system.cpu11.icache.mem_side::system.l2.cpu_side        34368                       # Cumulative packet size per connected master and slave (bytes)
system.tol2bus.pkt_size_system.cpu11.dcache.mem_side::system.l2.cpu_side      6476096                       # Cumulative packet size per connected master and slave (bytes)
system.tol2bus.pkt_size_system.cpu12.icache.mem_side::system.l2.cpu_side        34688                       # Cumulative packet size per connected master and slave (bytes)
system.tol2bus.pkt_size_system.cpu12.dcache.mem_side::system.l2.cpu_side      7210432                       # Cumulative packet size per connected master and slave (bytes)
system.tol2bus.pkt_size_system.cpu13.icache.mem_side::system.l2.cpu_side        28416                       # Cumulative packet size per connected master and slave (bytes)
system.tol2bus.pkt_size_system.cpu13.dcache.mem_side::system.l2.cpu_side      6476864                       # Cumulative packet size per connected master and slave (bytes)
system.tol2bus.pkt_size_system.cpu14.icache.mem_side::system.l2.cpu_side        34816                       # Cumulative packet size per connected master and slave (bytes)
system.tol2bus.pkt_size_system.cpu14.dcache.mem_side::system.l2.cpu_side      6780032                       # Cumulative packet size per connected master and slave (bytes)
system.tol2bus.pkt_size_system.cpu15.icache.mem_side::system.l2.cpu_side        34688                       # Cumulative packet size per connected master and slave (bytes)
system.tol2bus.pkt_size_system.cpu15.dcache.mem_side::system.l2.cpu_side      6759040                       # Cumulative packet size per connected master and slave (bytes)
system.tol2bus.pkt_size::total              110272704                       # Cumulative packet size per connected master and slave (bytes)
system.tol2bus.snoops                          145445                       # Total snoops (count)
system.tol2bus.snoop_fanout::samples          1046132                       # Request fanout histogram
system.tol2bus.snoop_fanout::mean            0.076507                       # Request fanout histogram
system.tol2bus.snoop_fanout::stdev           0.839022                       # Request fanout histogram
system.tol2bus.snoop_fanout::underflows             0      0.00%      0.00% # Request fanout histogram
system.tol2bus.snoop_fanout::0                1029584     98.42%     98.42% # Request fanout histogram
system.tol2bus.snoop_fanout::1                   6560      0.63%     99.05% # Request fanout histogram
system.tol2bus.snoop_fanout::2                   1626      0.16%     99.20% # Request fanout histogram
system.tol2bus.snoop_fanout::3                   1114      0.11%     99.31% # Request fanout histogram
system.tol2bus.snoop_fanout::4                    834      0.08%     99.39% # Request fanout histogram
system.tol2bus.snoop_fanout::5                    763      0.07%     99.46% # Request fanout histogram
system.tol2bus.snoop_fanout::6                    683      0.07%     99.53% # Request fanout histogram
system.tol2bus.snoop_fanout::7                    572      0.05%     99.58% # Request fanout histogram
system.tol2bus.snoop_fanout::8                    580      0.06%     99.64% # Request fanout histogram
system.tol2bus.snoop_fanout::9                    550      0.05%     99.69% # Request fanout histogram
system.tol2bus.snoop_fanout::10                   485      0.05%     99.73% # Request fanout histogram
system.tol2bus.snoop_fanout::11                   472      0.05%     99.78% # Request fanout histogram
system.tol2bus.snoop_fanout::12                   476      0.05%     99.82% # Request fanout histogram
system.tol2bus.snoop_fanout::13                   458      0.04%     99.87% # Request fanout histogram
system.tol2bus.snoop_fanout::14                   471      0.05%     99.91% # Request fanout histogram
system.tol2bus.snoop_fanout::15                   727      0.07%     99.98% # Request fanout histogram
system.tol2bus.snoop_fanout::16                   177      0.02%    100.00% # Request fanout histogram
system.tol2bus.snoop_fanout::17                     0      0.00%    100.00% # Request fanout histogram
system.tol2bus.snoop_fanout::18                     0      0.00%    100.00% # Request fanout histogram
system.tol2bus.snoop_fanout::19                     0      0.00%    100.00% # Request fanout histogram
system.tol2bus.snoop_fanout::20                     0      0.00%    100.00% # Request fanout histogram
system.tol2bus.snoop_fanout::21                     0      0.00%    100.00% # Request fanout histogram
system.tol2bus.snoop_fanout::22                     0      0.00%    100.00% # Request fanout histogram
system.tol2bus.snoop_fanout::23                     0      0.00%    100.00% # Request fanout histogram
system.tol2bus.snoop_fanout::24                     0      0.00%    100.00% # Request fanout histogram
system.tol2bus.snoop_fanout::25                     0      0.00%    100.00% # Request fanout histogram
system.tol2bus.snoop_fanout::26                     0      0.00%    100.00% # Request fanout histogram
system.tol2bus.snoop_fanout::27                     0      0.00%    100.00% # Request fanout histogram
system.tol2bus.snoop_fanout::28                     0      0.00%    100.00% # Request fanout histogram
system.tol2bus.snoop_fanout::29                     0      0.00%    100.00% # Request fanout histogram
system.tol2bus.snoop_fanout::30                     0      0.00%    100.00% # Request fanout histogram
system.tol2bus.snoop_fanout::31                     0      0.00%    100.00% # Request fanout histogram
system.tol2bus.snoop_fanout::32                     0      0.00%    100.00% # Request fanout histogram
system.tol2bus.snoop_fanout::overflows              0      0.00%    100.00% # Request fanout histogram
system.tol2bus.snoop_fanout::min_value              0                       # Request fanout histogram
system.tol2bus.snoop_fanout::max_value             16                       # Request fanout histogram
system.tol2bus.snoop_fanout::total            1046132                       # Request fanout histogram
system.tol2bus.reqLayer0.occupancy         4016030742                       # Layer occupancy (ticks)
system.tol2bus.reqLayer0.utilization             39.4                       # Layer utilization (%)
system.tol2bus.respLayer0.occupancy          27133308                       # Layer occupancy (ticks)
system.tol2bus.respLayer0.utilization             0.3                       # Layer utilization (%)
system.tol2bus.respLayer1.occupancy         244256147                       # Layer occupancy (ticks)
system.tol2bus.respLayer1.utilization             2.4                       # Layer utilization (%)
system.tol2bus.respLayer2.occupancy           1709505                       # Layer occupancy (ticks)
system.tol2bus.respLayer2.utilization             0.0                       # Layer utilization (%)
system.tol2bus.respLayer3.occupancy         182976613                       # Layer occupancy (ticks)
system.tol2bus.respLayer3.utilization             1.8                       # Layer utilization (%)
system.tol2bus.respLayer4.occupancy           1463953                       # Layer occupancy (ticks)
system.tol2bus.respLayer4.utilization             0.0                       # Layer utilization (%)
system.tol2bus.respLayer5.occupancy         190180459                       # Layer occupancy (ticks)
system.tol2bus.respLayer5.utilization             1.9                       # Layer utilization (%)
system.tol2bus.respLayer6.occupancy           1611562                       # Layer occupancy (ticks)
system.tol2bus.respLayer6.utilization             0.0                       # Layer utilization (%)
system.tol2bus.respLayer7.occupancy         183588570                       # Layer occupancy (ticks)
system.tol2bus.respLayer7.utilization             1.8                       # Layer utilization (%)
system.tol2bus.respLayer8.occupancy           1410540                       # Layer occupancy (ticks)
system.tol2bus.respLayer8.utilization             0.0                       # Layer utilization (%)
system.tol2bus.respLayer9.occupancy         204912169                       # Layer occupancy (ticks)
system.tol2bus.respLayer9.utilization             2.0                       # Layer utilization (%)
system.tol2bus.respLayer10.occupancy          1606739                       # Layer occupancy (ticks)
system.tol2bus.respLayer10.utilization            0.0                       # Layer utilization (%)
system.tol2bus.respLayer11.occupancy        183715406                       # Layer occupancy (ticks)
system.tol2bus.respLayer11.utilization            1.8                       # Layer utilization (%)
system.tol2bus.respLayer12.occupancy          1411677                       # Layer occupancy (ticks)
system.tol2bus.respLayer12.utilization            0.0                       # Layer utilization (%)
system.tol2bus.respLayer13.occupancy        192688737                       # Layer occupancy (ticks)
system.tol2bus.respLayer13.utilization            1.9                       # Layer utilization (%)
system.tol2bus.respLayer14.occupancy          1617180                       # Layer occupancy (ticks)
system.tol2bus.respLayer14.utilization            0.0                       # Layer utilization (%)
system.tol2bus.respLayer15.occupancy        185466329                       # Layer occupancy (ticks)
system.tol2bus.respLayer15.utilization            1.8                       # Layer utilization (%)
system.tol2bus.respLayer16.occupancy          1405138                       # Layer occupancy (ticks)
system.tol2bus.respLayer16.utilization            0.0                       # Layer utilization (%)
system.tol2bus.respLayer17.occupancy        220253688                       # Layer occupancy (ticks)
system.tol2bus.respLayer17.utilization            2.2                       # Layer utilization (%)
system.tol2bus.respLayer18.occupancy          1599760                       # Layer occupancy (ticks)
system.tol2bus.respLayer18.utilization            0.0                       # Layer utilization (%)
system.tol2bus.respLayer19.occupancy        185056746                       # Layer occupancy (ticks)
system.tol2bus.respLayer19.utilization            1.8                       # Layer utilization (%)
system.tol2bus.respLayer20.occupancy          1410476                       # Layer occupancy (ticks)
system.tol2bus.respLayer20.utilization            0.0                       # Layer utilization (%)
system.tol2bus.respLayer21.occupancy        190912106                       # Layer occupancy (ticks)
system.tol2bus.respLayer21.utilization            1.9                       # Layer utilization (%)
system.tol2bus.respLayer22.occupancy          1602529                       # Layer occupancy (ticks)
system.tol2bus.respLayer22.utilization            0.0                       # Layer utilization (%)
system.tol2bus.respLayer23.occupancy        184510046                       # Layer occupancy (ticks)
system.tol2bus.respLayer23.utilization            1.8                       # Layer utilization (%)
system.tol2bus.respLayer24.occupancy          1620412                       # Layer occupancy (ticks)
system.tol2bus.respLayer24.utilization            0.0                       # Layer utilization (%)
system.tol2bus.respLayer25.occupancy        205589858                       # Layer occupancy (ticks)
system.tol2bus.respLayer25.utilization            2.0                       # Layer utilization (%)
system.tol2bus.respLayer26.occupancy          1405904                       # Layer occupancy (ticks)
system.tol2bus.respLayer26.utilization            0.0                       # Layer utilization (%)
system.tol2bus.respLayer27.occupancy        184202517                       # Layer occupancy (ticks)
system.tol2bus.respLayer27.utilization            1.8                       # Layer utilization (%)
system.tol2bus.respLayer28.occupancy          1628797                       # Layer occupancy (ticks)
system.tol2bus.respLayer28.utilization            0.0                       # Layer utilization (%)
system.tol2bus.respLayer29.occupancy        194400238                       # Layer occupancy (ticks)
system.tol2bus.respLayer29.utilization            1.9                       # Layer utilization (%)
system.tol2bus.respLayer30.occupancy          1616041                       # Layer occupancy (ticks)
system.tol2bus.respLayer30.utilization            0.0                       # Layer utilization (%)
system.tol2bus.respLayer31.occupancy        191936026                       # Layer occupancy (ticks)
system.tol2bus.respLayer31.utilization            1.9                       # Layer utilization (%)

---------- End Simulation Statistics   ----------
