
---------- Begin Simulation Statistics ----------
sim_seconds                                  0.010201                       # Number of seconds simulated
sim_ticks                                 10200673710                       # Number of ticks simulated
final_tick                                10200673710                       # Number of ticks from beginning of simulation (restored from checkpoints and never reset)
sim_freq                                 1000000000000                       # Frequency of simulated ticks
host_inst_rate                                  80904                       # Simulator instruction rate (inst/s)
host_op_rate                                    80904                       # Simulator op (including micro ops) rate (op/s)
host_tick_rate                               12891428                       # Simulator tick rate (ticks/s)
host_mem_usage                                 692496                       # Number of bytes of host memory used
host_seconds                                   791.28                       # Real time elapsed on the host
sim_insts                                    64017309                       # Number of instructions simulated
sim_ops                                      64017309                       # Number of ops (including micro ops) simulated
system.voltage_domain.voltage                       1                       # Voltage in Volts
system.clk_domain.clock                          1000                       # Clock period in ticks
system.mem_ctrls.bytes_read::cpu00.inst        129024                       # Number of bytes read from this memory
system.mem_ctrls.bytes_read::cpu00.data        871296                       # Number of bytes read from this memory
system.mem_ctrls.bytes_read::cpu01.inst         12672                       # Number of bytes read from this memory
system.mem_ctrls.bytes_read::cpu01.data        592448                       # Number of bytes read from this memory
system.mem_ctrls.bytes_read::cpu02.inst          1344                       # Number of bytes read from this memory
system.mem_ctrls.bytes_read::cpu02.data        628288                       # Number of bytes read from this memory
system.mem_ctrls.bytes_read::cpu03.inst           256                       # Number of bytes read from this memory
system.mem_ctrls.bytes_read::cpu03.data        557056                       # Number of bytes read from this memory
system.mem_ctrls.bytes_read::cpu04.inst            64                       # Number of bytes read from this memory
system.mem_ctrls.bytes_read::cpu04.data        572736                       # Number of bytes read from this memory
system.mem_ctrls.bytes_read::cpu05.inst           256                       # Number of bytes read from this memory
system.mem_ctrls.bytes_read::cpu05.data        547648                       # Number of bytes read from this memory
system.mem_ctrls.bytes_read::cpu06.inst           384                       # Number of bytes read from this memory
system.mem_ctrls.bytes_read::cpu06.data        563968                       # Number of bytes read from this memory
system.mem_ctrls.bytes_read::cpu07.inst           128                       # Number of bytes read from this memory
system.mem_ctrls.bytes_read::cpu07.data        527424                       # Number of bytes read from this memory
system.mem_ctrls.bytes_read::cpu08.inst            64                       # Number of bytes read from this memory
system.mem_ctrls.bytes_read::cpu08.data        579904                       # Number of bytes read from this memory
system.mem_ctrls.bytes_read::cpu09.data        534336                       # Number of bytes read from this memory
system.mem_ctrls.bytes_read::cpu10.data        550080                       # Number of bytes read from this memory
system.mem_ctrls.bytes_read::cpu11.inst            64                       # Number of bytes read from this memory
system.mem_ctrls.bytes_read::cpu11.data        539392                       # Number of bytes read from this memory
system.mem_ctrls.bytes_read::cpu12.inst          1216                       # Number of bytes read from this memory
system.mem_ctrls.bytes_read::cpu12.data        578112                       # Number of bytes read from this memory
system.mem_ctrls.bytes_read::cpu13.inst            64                       # Number of bytes read from this memory
system.mem_ctrls.bytes_read::cpu13.data        523904                       # Number of bytes read from this memory
system.mem_ctrls.bytes_read::cpu14.inst           384                       # Number of bytes read from this memory
system.mem_ctrls.bytes_read::cpu14.data        547392                       # Number of bytes read from this memory
system.mem_ctrls.bytes_read::cpu15.inst           896                       # Number of bytes read from this memory
system.mem_ctrls.bytes_read::cpu15.data        556416                       # Number of bytes read from this memory
system.mem_ctrls.bytes_read::total            9417216                       # Number of bytes read from this memory
system.mem_ctrls.bytes_inst_read::cpu00.inst       129024                       # Number of instructions bytes read from this memory
system.mem_ctrls.bytes_inst_read::cpu01.inst        12672                       # Number of instructions bytes read from this memory
system.mem_ctrls.bytes_inst_read::cpu02.inst         1344                       # Number of instructions bytes read from this memory
system.mem_ctrls.bytes_inst_read::cpu03.inst          256                       # Number of instructions bytes read from this memory
system.mem_ctrls.bytes_inst_read::cpu04.inst           64                       # Number of instructions bytes read from this memory
system.mem_ctrls.bytes_inst_read::cpu05.inst          256                       # Number of instructions bytes read from this memory
system.mem_ctrls.bytes_inst_read::cpu06.inst          384                       # Number of instructions bytes read from this memory
system.mem_ctrls.bytes_inst_read::cpu07.inst          128                       # Number of instructions bytes read from this memory
system.mem_ctrls.bytes_inst_read::cpu08.inst           64                       # Number of instructions bytes read from this memory
system.mem_ctrls.bytes_inst_read::cpu11.inst           64                       # Number of instructions bytes read from this memory
system.mem_ctrls.bytes_inst_read::cpu12.inst         1216                       # Number of instructions bytes read from this memory
system.mem_ctrls.bytes_inst_read::cpu13.inst           64                       # Number of instructions bytes read from this memory
system.mem_ctrls.bytes_inst_read::cpu14.inst          384                       # Number of instructions bytes read from this memory
system.mem_ctrls.bytes_inst_read::cpu15.inst          896                       # Number of instructions bytes read from this memory
system.mem_ctrls.bytes_inst_read::total        146816                       # Number of instructions bytes read from this memory
system.mem_ctrls.bytes_written::writebacks      5881408                       # Number of bytes written to this memory
system.mem_ctrls.bytes_written::total         5881408                       # Number of bytes written to this memory
system.mem_ctrls.num_reads::cpu00.inst           2016                       # Number of read requests responded to by this memory
system.mem_ctrls.num_reads::cpu00.data          13614                       # Number of read requests responded to by this memory
system.mem_ctrls.num_reads::cpu01.inst            198                       # Number of read requests responded to by this memory
system.mem_ctrls.num_reads::cpu01.data           9257                       # Number of read requests responded to by this memory
system.mem_ctrls.num_reads::cpu02.inst             21                       # Number of read requests responded to by this memory
system.mem_ctrls.num_reads::cpu02.data           9817                       # Number of read requests responded to by this memory
system.mem_ctrls.num_reads::cpu03.inst              4                       # Number of read requests responded to by this memory
system.mem_ctrls.num_reads::cpu03.data           8704                       # Number of read requests responded to by this memory
system.mem_ctrls.num_reads::cpu04.inst              1                       # Number of read requests responded to by this memory
system.mem_ctrls.num_reads::cpu04.data           8949                       # Number of read requests responded to by this memory
system.mem_ctrls.num_reads::cpu05.inst              4                       # Number of read requests responded to by this memory
system.mem_ctrls.num_reads::cpu05.data           8557                       # Number of read requests responded to by this memory
system.mem_ctrls.num_reads::cpu06.inst              6                       # Number of read requests responded to by this memory
system.mem_ctrls.num_reads::cpu06.data           8812                       # Number of read requests responded to by this memory
system.mem_ctrls.num_reads::cpu07.inst              2                       # Number of read requests responded to by this memory
system.mem_ctrls.num_reads::cpu07.data           8241                       # Number of read requests responded to by this memory
system.mem_ctrls.num_reads::cpu08.inst              1                       # Number of read requests responded to by this memory
system.mem_ctrls.num_reads::cpu08.data           9061                       # Number of read requests responded to by this memory
system.mem_ctrls.num_reads::cpu09.data           8349                       # Number of read requests responded to by this memory
system.mem_ctrls.num_reads::cpu10.data           8595                       # Number of read requests responded to by this memory
system.mem_ctrls.num_reads::cpu11.inst              1                       # Number of read requests responded to by this memory
system.mem_ctrls.num_reads::cpu11.data           8428                       # Number of read requests responded to by this memory
system.mem_ctrls.num_reads::cpu12.inst             19                       # Number of read requests responded to by this memory
system.mem_ctrls.num_reads::cpu12.data           9033                       # Number of read requests responded to by this memory
system.mem_ctrls.num_reads::cpu13.inst              1                       # Number of read requests responded to by this memory
system.mem_ctrls.num_reads::cpu13.data           8186                       # Number of read requests responded to by this memory
system.mem_ctrls.num_reads::cpu14.inst              6                       # Number of read requests responded to by this memory
system.mem_ctrls.num_reads::cpu14.data           8553                       # Number of read requests responded to by this memory
system.mem_ctrls.num_reads::cpu15.inst             14                       # Number of read requests responded to by this memory
system.mem_ctrls.num_reads::cpu15.data           8694                       # Number of read requests responded to by this memory
system.mem_ctrls.num_reads::total              147144                       # Number of read requests responded to by this memory
system.mem_ctrls.num_writes::writebacks         91897                       # Number of write requests responded to by this memory
system.mem_ctrls.num_writes::total              91897                       # Number of write requests responded to by this memory
system.mem_ctrls.bw_read::cpu00.inst         12648576                       # Total read bandwidth from this memory (bytes/s)
system.mem_ctrls.bw_read::cpu00.data         85415535                       # Total read bandwidth from this memory (bytes/s)
system.mem_ctrls.bw_read::cpu01.inst          1242271                       # Total read bandwidth from this memory (bytes/s)
system.mem_ctrls.bw_read::cpu01.data         58079301                       # Total read bandwidth from this memory (bytes/s)
system.mem_ctrls.bw_read::cpu02.inst           131756                       # Total read bandwidth from this memory (bytes/s)
system.mem_ctrls.bw_read::cpu02.data         61592795                       # Total read bandwidth from this memory (bytes/s)
system.mem_ctrls.bw_read::cpu03.inst            25096                       # Total read bandwidth from this memory (bytes/s)
system.mem_ctrls.bw_read::cpu03.data         54609726                       # Total read bandwidth from this memory (bytes/s)
system.mem_ctrls.bw_read::cpu04.inst             6274                       # Total read bandwidth from this memory (bytes/s)
system.mem_ctrls.bw_read::cpu04.data         56146880                       # Total read bandwidth from this memory (bytes/s)
system.mem_ctrls.bw_read::cpu05.inst            25096                       # Total read bandwidth from this memory (bytes/s)
system.mem_ctrls.bw_read::cpu05.data         53687434                       # Total read bandwidth from this memory (bytes/s)
system.mem_ctrls.bw_read::cpu06.inst            37645                       # Total read bandwidth from this memory (bytes/s)
system.mem_ctrls.bw_read::cpu06.data         55287329                       # Total read bandwidth from this memory (bytes/s)
system.mem_ctrls.bw_read::cpu07.inst            12548                       # Total read bandwidth from this memory (bytes/s)
system.mem_ctrls.bw_read::cpu07.data         51704820                       # Total read bandwidth from this memory (bytes/s)
system.mem_ctrls.bw_read::cpu08.inst             6274                       # Total read bandwidth from this memory (bytes/s)
system.mem_ctrls.bw_read::cpu08.data         56849578                       # Total read bandwidth from this memory (bytes/s)
system.mem_ctrls.bw_read::cpu09.data         52382422                       # Total read bandwidth from this memory (bytes/s)
system.mem_ctrls.bw_read::cpu10.data         53925850                       # Total read bandwidth from this memory (bytes/s)
system.mem_ctrls.bw_read::cpu11.inst             6274                       # Total read bandwidth from this memory (bytes/s)
system.mem_ctrls.bw_read::cpu11.data         52878076                       # Total read bandwidth from this memory (bytes/s)
system.mem_ctrls.bw_read::cpu12.inst           119208                       # Total read bandwidth from this memory (bytes/s)
system.mem_ctrls.bw_read::cpu12.data         56673904                       # Total read bandwidth from this memory (bytes/s)
system.mem_ctrls.bw_read::cpu13.inst             6274                       # Total read bandwidth from this memory (bytes/s)
system.mem_ctrls.bw_read::cpu13.data         51359745                       # Total read bandwidth from this memory (bytes/s)
system.mem_ctrls.bw_read::cpu14.inst            37645                       # Total read bandwidth from this memory (bytes/s)
system.mem_ctrls.bw_read::cpu14.data         53662338                       # Total read bandwidth from this memory (bytes/s)
system.mem_ctrls.bw_read::cpu15.inst            87837                       # Total read bandwidth from this memory (bytes/s)
system.mem_ctrls.bw_read::cpu15.data         54546985                       # Total read bandwidth from this memory (bytes/s)
system.mem_ctrls.bw_read::total             923195494                       # Total read bandwidth from this memory (bytes/s)
system.mem_ctrls.bw_inst_read::cpu00.inst     12648576                       # Instruction read bandwidth from this memory (bytes/s)
system.mem_ctrls.bw_inst_read::cpu01.inst      1242271                       # Instruction read bandwidth from this memory (bytes/s)
system.mem_ctrls.bw_inst_read::cpu02.inst       131756                       # Instruction read bandwidth from this memory (bytes/s)
system.mem_ctrls.bw_inst_read::cpu03.inst        25096                       # Instruction read bandwidth from this memory (bytes/s)
system.mem_ctrls.bw_inst_read::cpu04.inst         6274                       # Instruction read bandwidth from this memory (bytes/s)
system.mem_ctrls.bw_inst_read::cpu05.inst        25096                       # Instruction read bandwidth from this memory (bytes/s)
system.mem_ctrls.bw_inst_read::cpu06.inst        37645                       # Instruction read bandwidth from this memory (bytes/s)
system.mem_ctrls.bw_inst_read::cpu07.inst        12548                       # Instruction read bandwidth from this memory (bytes/s)
system.mem_ctrls.bw_inst_read::cpu08.inst         6274                       # Instruction read bandwidth from this memory (bytes/s)
system.mem_ctrls.bw_inst_read::cpu11.inst         6274                       # Instruction read bandwidth from this memory (bytes/s)
system.mem_ctrls.bw_inst_read::cpu12.inst       119208                       # Instruction read bandwidth from this memory (bytes/s)
system.mem_ctrls.bw_inst_read::cpu13.inst         6274                       # Instruction read bandwidth from this memory (bytes/s)
system.mem_ctrls.bw_inst_read::cpu14.inst        37645                       # Instruction read bandwidth from this memory (bytes/s)
system.mem_ctrls.bw_inst_read::cpu15.inst        87837                       # Instruction read bandwidth from this memory (bytes/s)
system.mem_ctrls.bw_inst_read::total         14392775                       # Instruction read bandwidth from this memory (bytes/s)
system.mem_ctrls.bw_write::writebacks       576570545                       # Write bandwidth from this memory (bytes/s)
system.mem_ctrls.bw_write::total            576570545                       # Write bandwidth from this memory (bytes/s)
system.mem_ctrls.bw_total::writebacks       576570545                       # Total bandwidth to/from this memory (bytes/s)
system.mem_ctrls.bw_total::cpu00.inst        12648576                       # Total bandwidth to/from this memory (bytes/s)
system.mem_ctrls.bw_total::cpu00.data        85415535                       # Total bandwidth to/from this memory (bytes/s)
system.mem_ctrls.bw_total::cpu01.inst         1242271                       # Total bandwidth to/from this memory (bytes/s)
system.mem_ctrls.bw_total::cpu01.data        58079301                       # Total bandwidth to/from this memory (bytes/s)
system.mem_ctrls.bw_total::cpu02.inst          131756                       # Total bandwidth to/from this memory (bytes/s)
system.mem_ctrls.bw_total::cpu02.data        61592795                       # Total bandwidth to/from this memory (bytes/s)
system.mem_ctrls.bw_total::cpu03.inst           25096                       # Total bandwidth to/from this memory (bytes/s)
system.mem_ctrls.bw_total::cpu03.data        54609726                       # Total bandwidth to/from this memory (bytes/s)
system.mem_ctrls.bw_total::cpu04.inst            6274                       # Total bandwidth to/from this memory (bytes/s)
system.mem_ctrls.bw_total::cpu04.data        56146880                       # Total bandwidth to/from this memory (bytes/s)
system.mem_ctrls.bw_total::cpu05.inst           25096                       # Total bandwidth to/from this memory (bytes/s)
system.mem_ctrls.bw_total::cpu05.data        53687434                       # Total bandwidth to/from this memory (bytes/s)
system.mem_ctrls.bw_total::cpu06.inst           37645                       # Total bandwidth to/from this memory (bytes/s)
system.mem_ctrls.bw_total::cpu06.data        55287329                       # Total bandwidth to/from this memory (bytes/s)
system.mem_ctrls.bw_total::cpu07.inst           12548                       # Total bandwidth to/from this memory (bytes/s)
system.mem_ctrls.bw_total::cpu07.data        51704820                       # Total bandwidth to/from this memory (bytes/s)
system.mem_ctrls.bw_total::cpu08.inst            6274                       # Total bandwidth to/from this memory (bytes/s)
system.mem_ctrls.bw_total::cpu08.data        56849578                       # Total bandwidth to/from this memory (bytes/s)
system.mem_ctrls.bw_total::cpu09.data        52382422                       # Total bandwidth to/from this memory (bytes/s)
system.mem_ctrls.bw_total::cpu10.data        53925850                       # Total bandwidth to/from this memory (bytes/s)
system.mem_ctrls.bw_total::cpu11.inst            6274                       # Total bandwidth to/from this memory (bytes/s)
system.mem_ctrls.bw_total::cpu11.data        52878076                       # Total bandwidth to/from this memory (bytes/s)
system.mem_ctrls.bw_total::cpu12.inst          119208                       # Total bandwidth to/from this memory (bytes/s)
system.mem_ctrls.bw_total::cpu12.data        56673904                       # Total bandwidth to/from this memory (bytes/s)
system.mem_ctrls.bw_total::cpu13.inst            6274                       # Total bandwidth to/from this memory (bytes/s)
system.mem_ctrls.bw_total::cpu13.data        51359745                       # Total bandwidth to/from this memory (bytes/s)
system.mem_ctrls.bw_total::cpu14.inst           37645                       # Total bandwidth to/from this memory (bytes/s)
system.mem_ctrls.bw_total::cpu14.data        53662338                       # Total bandwidth to/from this memory (bytes/s)
system.mem_ctrls.bw_total::cpu15.inst           87837                       # Total bandwidth to/from this memory (bytes/s)
system.mem_ctrls.bw_total::cpu15.data        54546985                       # Total bandwidth to/from this memory (bytes/s)
system.mem_ctrls.bw_total::total           1499766038                       # Total bandwidth to/from this memory (bytes/s)
system.cpu00.branchPred.lookups                332980                       # Number of BP lookups
system.cpu00.branchPred.condPredicted          167561                       # Number of conditional branches predicted
system.cpu00.branchPred.condIncorrect            5333                       # Number of conditional branches incorrect
system.cpu00.branchPred.BTBLookups             233402                       # Number of BTB lookups
system.cpu00.branchPred.BTBHits                210859                       # Number of BTB hits
system.cpu00.branchPred.BTBCorrect                  0                       # Number of correct BTB predictions (this stat may not work properly.
system.cpu00.branchPred.BTBHitPct           90.341557                       # BTB Hit Percentage
system.cpu00.branchPred.usedRAS                 79752                       # Number of times the RAS was used to get a target.
system.cpu00.branchPred.RASInCorrect               84                       # Number of incorrect RAS predictions.
system.cpu00.branchPred.indirectLookups          1705                       # Number of indirect predictor lookups.
system.cpu00.branchPred.indirectHits              972                       # Number of indirect target hits.
system.cpu00.branchPred.indirectMisses            733                       # Number of indirect misses.
system.cpu00.branchPredindirectMispredicted          228                       # Number of mispredicted indirect branches.
system.cpu_voltage_domain.voltage                   1                       # Voltage in Volts
system.cpu_clk_domain.clock                      1161                       # Clock period in ticks
system.cpu00.dtb.fetch_hits                         0                       # ITB hits
system.cpu00.dtb.fetch_misses                       0                       # ITB misses
system.cpu00.dtb.fetch_acv                          0                       # ITB acv
system.cpu00.dtb.fetch_accesses                     0                       # ITB accesses
system.cpu00.dtb.read_hits                    1178266                       # DTB read hits
system.cpu00.dtb.read_misses                     7876                       # DTB read misses
system.cpu00.dtb.read_acv                           2                       # DTB read access violations
system.cpu00.dtb.read_accesses                1186142                       # DTB read accesses
system.cpu00.dtb.write_hits                    354462                       # DTB write hits
system.cpu00.dtb.write_misses                   59767                       # DTB write misses
system.cpu00.dtb.write_acv                          0                       # DTB write access violations
system.cpu00.dtb.write_accesses                414229                       # DTB write accesses
system.cpu00.dtb.data_hits                    1532728                       # DTB hits
system.cpu00.dtb.data_misses                    67643                       # DTB misses
system.cpu00.dtb.data_acv                           2                       # DTB access violations
system.cpu00.dtb.data_accesses                1600371                       # DTB accesses
system.cpu00.itb.fetch_hits                    767760                       # ITB hits
system.cpu00.itb.fetch_misses                     171                       # ITB misses
system.cpu00.itb.fetch_acv                          0                       # ITB acv
system.cpu00.itb.fetch_accesses                767931                       # ITB accesses
system.cpu00.itb.read_hits                          0                       # DTB read hits
system.cpu00.itb.read_misses                        0                       # DTB read misses
system.cpu00.itb.read_acv                           0                       # DTB read access violations
system.cpu00.itb.read_accesses                      0                       # DTB read accesses
system.cpu00.itb.write_hits                         0                       # DTB write hits
system.cpu00.itb.write_misses                       0                       # DTB write misses
system.cpu00.itb.write_acv                          0                       # DTB write access violations
system.cpu00.itb.write_accesses                     0                       # DTB write accesses
system.cpu00.itb.data_hits                          0                       # DTB hits
system.cpu00.itb.data_misses                        0                       # DTB misses
system.cpu00.itb.data_acv                           0                       # DTB access violations
system.cpu00.itb.data_accesses                      0                       # DTB accesses
system.cpu00.workload.num_syscalls               1719                       # Number of system calls
system.cpu00.numCycles                        8486197                       # number of cpu cycles simulated
system.cpu00.numWorkItemsStarted                    0                       # number of work items this cpu started
system.cpu00.numWorkItemsCompleted                  0                       # number of work items this cpu completed
system.cpu00.fetch.icacheStallCycles            86048                       # Number of cycles fetch is stalled on an Icache miss
system.cpu00.fetch.Insts                      7377218                       # Number of instructions fetch has processed
system.cpu00.fetch.Branches                    332980                       # Number of branches that fetch encountered
system.cpu00.fetch.predictedBranches           291583                       # Number of branches that fetch has predicted taken
system.cpu00.fetch.Cycles                     8156146                       # Number of cycles fetch has run and was not squashing or blocked
system.cpu00.fetch.SquashCycles                 48510                       # Number of cycles fetch has spent squashing
system.cpu00.fetch.MiscStallCycles                 99                       # Number of cycles fetch has spent waiting on interrupts, or bad addresses, or out of MSHRs
system.cpu00.fetch.PendingTrapStallCycles         6911                       # Number of stall cycles due to pending traps
system.cpu00.fetch.IcacheWaitRetryStallCycles           74                       # Number of stall cycles due to full MSHR
system.cpu00.fetch.CacheLines                  767760                       # Number of cache lines fetched
system.cpu00.fetch.IcacheSquashes                2497                       # Number of outstanding Icache misses that were squashed
system.cpu00.fetch.rateDist::samples          8273533                       # Number of instructions fetched each cycle (Total)
system.cpu00.fetch.rateDist::mean            0.891665                       # Number of instructions fetched each cycle (Total)
system.cpu00.fetch.rateDist::stdev           2.250629                       # Number of instructions fetched each cycle (Total)
system.cpu00.fetch.rateDist::underflows             0      0.00%      0.00% # Number of instructions fetched each cycle (Total)
system.cpu00.fetch.rateDist::0                6921075     83.65%     83.65% # Number of instructions fetched each cycle (Total)
system.cpu00.fetch.rateDist::1                  35730      0.43%     84.09% # Number of instructions fetched each cycle (Total)
system.cpu00.fetch.rateDist::2                 258729      3.13%     87.21% # Number of instructions fetched each cycle (Total)
system.cpu00.fetch.rateDist::3                  30132      0.36%     87.58% # Number of instructions fetched each cycle (Total)
system.cpu00.fetch.rateDist::4                 268702      3.25%     90.82% # Number of instructions fetched each cycle (Total)
system.cpu00.fetch.rateDist::5                  49516      0.60%     91.42% # Number of instructions fetched each cycle (Total)
system.cpu00.fetch.rateDist::6                  89439      1.08%     92.50% # Number of instructions fetched each cycle (Total)
system.cpu00.fetch.rateDist::7                  87068      1.05%     93.56% # Number of instructions fetched each cycle (Total)
system.cpu00.fetch.rateDist::8                 533142      6.44%    100.00% # Number of instructions fetched each cycle (Total)
system.cpu00.fetch.rateDist::overflows              0      0.00%    100.00% # Number of instructions fetched each cycle (Total)
system.cpu00.fetch.rateDist::min_value              0                       # Number of instructions fetched each cycle (Total)
system.cpu00.fetch.rateDist::max_value              8                       # Number of instructions fetched each cycle (Total)
system.cpu00.fetch.rateDist::total            8273533                       # Number of instructions fetched each cycle (Total)
system.cpu00.fetch.branchRate                0.039238                       # Number of branch fetches per cycle
system.cpu00.fetch.rate                      0.869320                       # Number of inst fetches per cycle
system.cpu00.decode.IdleCycles                 255741                       # Number of cycles decode is idle
system.cpu00.decode.BlockedCycles             7153221                       # Number of cycles decode is blocked
system.cpu00.decode.RunCycles                  334446                       # Number of cycles decode is running
system.cpu00.decode.UnblockCycles              507544                       # Number of cycles decode is unblocking
system.cpu00.decode.SquashCycles                22581                       # Number of cycles decode is squashing
system.cpu00.decode.BranchResolved              81718                       # Number of times decode resolved a branch
system.cpu00.decode.BranchMispred                1722                       # Number of times decode detected a branch misprediction
system.cpu00.decode.DecodedInsts              6493899                       # Number of instructions handled by decode
system.cpu00.decode.SquashedInsts                7151                       # Number of squashed instructions handled by decode
system.cpu00.rename.SquashCycles                22581                       # Number of cycles rename is squashing
system.cpu00.rename.IdleCycles                 378432                       # Number of cycles rename is idle
system.cpu00.rename.BlockCycles               3085466                       # Number of cycles rename is blocking
system.cpu00.rename.serializeStallCycles        92550                       # count of cycles rename stalled for serializing inst
system.cpu00.rename.RunCycles                  641342                       # Number of cycles rename is running
system.cpu00.rename.UnblockCycles             4053162                       # Number of cycles rename is unblocking
system.cpu00.rename.RenamedInsts              6327256                       # Number of instructions processed by rename
system.cpu00.rename.ROBFullEvents                2327                       # Number of times rename has blocked due to ROB full
system.cpu00.rename.IQFullEvents              2085142                       # Number of times rename has blocked due to IQ full
system.cpu00.rename.LQFullEvents              1666348                       # Number of times rename has blocked due to LQ full
system.cpu00.rename.SQFullEvents               266427                       # Number of times rename has blocked due to SQ full
system.cpu00.rename.RenamedOperands           5427766                       # Number of destination operands rename has renamed
system.cpu00.rename.RenameLookups             9151107                       # Number of register rename lookups that rename has made
system.cpu00.rename.int_rename_lookups        5132797                       # Number of integer rename lookups
system.cpu00.rename.fp_rename_lookups         4018058                       # Number of floating rename lookups
system.cpu00.rename.CommittedMaps             3931232                       # Number of HB maps that are committed
system.cpu00.rename.UndoneMaps                1496534                       # Number of HB maps that are undone due to squashing
system.cpu00.rename.serializingInsts             2286                       # count of serializing insts renamed
system.cpu00.rename.tempSerializingInsts         1945                       # count of temporary serializing insts renamed
system.cpu00.rename.skidInsts                 3385626                       # count of insts added to the skid buffer
system.cpu00.memDep0.insertedLoads            1198052                       # Number of loads inserted to the mem dependence unit.
system.cpu00.memDep0.insertedStores            532774                       # Number of stores inserted to the mem dependence unit.
system.cpu00.memDep0.conflictingLoads          370965                       # Number of conflicting loads.
system.cpu00.memDep0.conflictingStores         201305                       # Number of conflicting stores.
system.cpu00.iq.iqInstsAdded                  6223543                       # Number of instructions added to the IQ (excludes non-spec)
system.cpu00.iq.iqNonSpecInstsAdded              3187                       # Number of non-speculative instructions added to the IQ
system.cpu00.iq.iqInstsIssued                 5929325                       # Number of instructions issued
system.cpu00.iq.iqSquashedInstsIssued            6977                       # Number of squashed instructions issued
system.cpu00.iq.iqSquashedInstsExamined       1880693                       # Number of squashed instructions iterated over during squash; mainly for profiling
system.cpu00.iq.iqSquashedOperandsExamined       776844                       # Number of squashed operands that are examined and possibly removed from graph
system.cpu00.iq.iqSquashedNonSpecRemoved          484                       # Number of squashed non-spec instructions that were removed
system.cpu00.iq.issued_per_cycle::samples      8273533                       # Number of insts issued each cycle
system.cpu00.iq.issued_per_cycle::mean       0.716662                       # Number of insts issued each cycle
system.cpu00.iq.issued_per_cycle::stdev      1.208240                       # Number of insts issued each cycle
system.cpu00.iq.issued_per_cycle::underflows            0      0.00%      0.00% # Number of insts issued each cycle
system.cpu00.iq.issued_per_cycle::0           4797348     57.98%     57.98% # Number of insts issued each cycle
system.cpu00.iq.issued_per_cycle::1           2248023     27.17%     85.16% # Number of insts issued each cycle
system.cpu00.iq.issued_per_cycle::2            713074      8.62%     93.77% # Number of insts issued each cycle
system.cpu00.iq.issued_per_cycle::3            219332      2.65%     96.43% # Number of insts issued each cycle
system.cpu00.iq.issued_per_cycle::4            115202      1.39%     97.82% # Number of insts issued each cycle
system.cpu00.iq.issued_per_cycle::5             64723      0.78%     98.60% # Number of insts issued each cycle
system.cpu00.iq.issued_per_cycle::6             43638      0.53%     99.13% # Number of insts issued each cycle
system.cpu00.iq.issued_per_cycle::7             26637      0.32%     99.45% # Number of insts issued each cycle
system.cpu00.iq.issued_per_cycle::8             45556      0.55%    100.00% # Number of insts issued each cycle
system.cpu00.iq.issued_per_cycle::overflows            0      0.00%    100.00% # Number of insts issued each cycle
system.cpu00.iq.issued_per_cycle::min_value            0                       # Number of insts issued each cycle
system.cpu00.iq.issued_per_cycle::max_value            8                       # Number of insts issued each cycle
system.cpu00.iq.issued_per_cycle::total       8273533                       # Number of insts issued each cycle
system.cpu00.iq.fu_full::No_OpClass                 0      0.00%      0.00% # attempts to use FU when none available
system.cpu00.iq.fu_full::IntAlu                  4082      9.19%      9.19% # attempts to use FU when none available
system.cpu00.iq.fu_full::IntMult                    0      0.00%      9.19% # attempts to use FU when none available
system.cpu00.iq.fu_full::IntDiv                     0      0.00%      9.19% # attempts to use FU when none available
system.cpu00.iq.fu_full::FloatAdd                   0      0.00%      9.19% # attempts to use FU when none available
system.cpu00.iq.fu_full::FloatCmp                   0      0.00%      9.19% # attempts to use FU when none available
system.cpu00.iq.fu_full::FloatCvt                   0      0.00%      9.19% # attempts to use FU when none available
system.cpu00.iq.fu_full::FloatMult               8237     18.54%     27.72% # attempts to use FU when none available
system.cpu00.iq.fu_full::FloatDiv                   0      0.00%     27.72% # attempts to use FU when none available
system.cpu00.iq.fu_full::FloatSqrt                  0      0.00%     27.72% # attempts to use FU when none available
system.cpu00.iq.fu_full::SimdAdd                    0      0.00%     27.72% # attempts to use FU when none available
system.cpu00.iq.fu_full::SimdAddAcc                 0      0.00%     27.72% # attempts to use FU when none available
system.cpu00.iq.fu_full::SimdAlu                    0      0.00%     27.72% # attempts to use FU when none available
system.cpu00.iq.fu_full::SimdCmp                    0      0.00%     27.72% # attempts to use FU when none available
system.cpu00.iq.fu_full::SimdCvt                    0      0.00%     27.72% # attempts to use FU when none available
system.cpu00.iq.fu_full::SimdMisc                   0      0.00%     27.72% # attempts to use FU when none available
system.cpu00.iq.fu_full::SimdMult                   0      0.00%     27.72% # attempts to use FU when none available
system.cpu00.iq.fu_full::SimdMultAcc                0      0.00%     27.72% # attempts to use FU when none available
system.cpu00.iq.fu_full::SimdShift                  0      0.00%     27.72% # attempts to use FU when none available
system.cpu00.iq.fu_full::SimdShiftAcc               0      0.00%     27.72% # attempts to use FU when none available
system.cpu00.iq.fu_full::SimdSqrt                   0      0.00%     27.72% # attempts to use FU when none available
system.cpu00.iq.fu_full::SimdFloatAdd               0      0.00%     27.72% # attempts to use FU when none available
system.cpu00.iq.fu_full::SimdFloatAlu               0      0.00%     27.72% # attempts to use FU when none available
system.cpu00.iq.fu_full::SimdFloatCmp               0      0.00%     27.72% # attempts to use FU when none available
system.cpu00.iq.fu_full::SimdFloatCvt               0      0.00%     27.72% # attempts to use FU when none available
system.cpu00.iq.fu_full::SimdFloatDiv               0      0.00%     27.72% # attempts to use FU when none available
system.cpu00.iq.fu_full::SimdFloatMisc              0      0.00%     27.72% # attempts to use FU when none available
system.cpu00.iq.fu_full::SimdFloatMult              0      0.00%     27.72% # attempts to use FU when none available
system.cpu00.iq.fu_full::SimdFloatMultAcc            0      0.00%     27.72% # attempts to use FU when none available
system.cpu00.iq.fu_full::SimdFloatSqrt              0      0.00%     27.72% # attempts to use FU when none available
system.cpu00.iq.fu_full::MemRead                25035     56.33%     84.05% # attempts to use FU when none available
system.cpu00.iq.fu_full::MemWrite                7086     15.95%    100.00% # attempts to use FU when none available
system.cpu00.iq.fu_full::IprAccess                  0      0.00%    100.00% # attempts to use FU when none available
system.cpu00.iq.fu_full::InstPrefetch               0      0.00%    100.00% # attempts to use FU when none available
system.cpu00.iq.FU_type_0::No_OpClass               0      0.00%      0.00% # Type of FU issued
system.cpu00.iq.FU_type_0::IntAlu             1755819     29.61%     29.61% # Type of FU issued
system.cpu00.iq.FU_type_0::IntMult                251      0.00%     29.62% # Type of FU issued
system.cpu00.iq.FU_type_0::IntDiv                   0      0.00%     29.62% # Type of FU issued
system.cpu00.iq.FU_type_0::FloatAdd           1713560     28.90%     58.52% # Type of FU issued
system.cpu00.iq.FU_type_0::FloatCmp                11      0.00%     58.52% # Type of FU issued
system.cpu00.iq.FU_type_0::FloatCvt                 0      0.00%     58.52% # Type of FU issued
system.cpu00.iq.FU_type_0::FloatMult           852373     14.38%     72.89% # Type of FU issued
system.cpu00.iq.FU_type_0::FloatDiv                 0      0.00%     72.89% # Type of FU issued
system.cpu00.iq.FU_type_0::FloatSqrt                0      0.00%     72.89% # Type of FU issued
system.cpu00.iq.FU_type_0::SimdAdd                  0      0.00%     72.89% # Type of FU issued
system.cpu00.iq.FU_type_0::SimdAddAcc               0      0.00%     72.89% # Type of FU issued
system.cpu00.iq.FU_type_0::SimdAlu                  0      0.00%     72.89% # Type of FU issued
system.cpu00.iq.FU_type_0::SimdCmp                  0      0.00%     72.89% # Type of FU issued
system.cpu00.iq.FU_type_0::SimdCvt                  0      0.00%     72.89% # Type of FU issued
system.cpu00.iq.FU_type_0::SimdMisc                 0      0.00%     72.89% # Type of FU issued
system.cpu00.iq.FU_type_0::SimdMult                 0      0.00%     72.89% # Type of FU issued
system.cpu00.iq.FU_type_0::SimdMultAcc              0      0.00%     72.89% # Type of FU issued
system.cpu00.iq.FU_type_0::SimdShift                0      0.00%     72.89% # Type of FU issued
system.cpu00.iq.FU_type_0::SimdShiftAcc             0      0.00%     72.89% # Type of FU issued
system.cpu00.iq.FU_type_0::SimdSqrt                 0      0.00%     72.89% # Type of FU issued
system.cpu00.iq.FU_type_0::SimdFloatAdd             0      0.00%     72.89% # Type of FU issued
system.cpu00.iq.FU_type_0::SimdFloatAlu             0      0.00%     72.89% # Type of FU issued
system.cpu00.iq.FU_type_0::SimdFloatCmp             0      0.00%     72.89% # Type of FU issued
system.cpu00.iq.FU_type_0::SimdFloatCvt             0      0.00%     72.89% # Type of FU issued
system.cpu00.iq.FU_type_0::SimdFloatDiv             0      0.00%     72.89% # Type of FU issued
system.cpu00.iq.FU_type_0::SimdFloatMisc            0      0.00%     72.89% # Type of FU issued
system.cpu00.iq.FU_type_0::SimdFloatMult            0      0.00%     72.89% # Type of FU issued
system.cpu00.iq.FU_type_0::SimdFloatMultAcc            0      0.00%     72.89% # Type of FU issued
system.cpu00.iq.FU_type_0::SimdFloatSqrt            0      0.00%     72.89% # Type of FU issued
system.cpu00.iq.FU_type_0::MemRead            1190802     20.08%     92.98% # Type of FU issued
system.cpu00.iq.FU_type_0::MemWrite            416509      7.02%    100.00% # Type of FU issued
system.cpu00.iq.FU_type_0::IprAccess                0      0.00%    100.00% # Type of FU issued
system.cpu00.iq.FU_type_0::InstPrefetch             0      0.00%    100.00% # Type of FU issued
system.cpu00.iq.FU_type_0::total              5929325                       # Type of FU issued
system.cpu00.iq.rate                         0.698702                       # Inst issue rate
system.cpu00.iq.fu_busy_cnt                     44440                       # FU busy when requested
system.cpu00.iq.fu_busy_rate                 0.007495                       # FU busy rate (busy events/executed inst)
system.cpu00.iq.int_inst_queue_reads         14451859                       # Number of integer instruction queue reads
system.cpu00.iq.int_inst_queue_writes         5243894                       # Number of integer instruction queue writes
system.cpu00.iq.int_inst_queue_wakeup_accesses      2874694                       # Number of integer instruction queue wakeup accesses
system.cpu00.iq.fp_inst_queue_reads           5731741                       # Number of floating instruction queue reads
system.cpu00.iq.fp_inst_queue_writes          2864030                       # Number of floating instruction queue writes
system.cpu00.iq.fp_inst_queue_wakeup_accesses      2861626                       # Number of floating instruction queue wakeup accesses
system.cpu00.iq.int_alu_accesses              3103738                       # Number of integer alu accesses
system.cpu00.iq.fp_alu_accesses               2870027                       # Number of floating point alu accesses
system.cpu00.iew.lsq.thread0.forwLoads           9551                       # Number of loads that had data forwarded from stores
system.cpu00.iew.lsq.thread0.invAddrLoads            0                       # Number of loads ignored due to an invalid address
system.cpu00.iew.lsq.thread0.squashedLoads       595229                       # Number of loads squashed
system.cpu00.iew.lsq.thread0.ignoredResponses           46                       # Number of memory responses ignored because the instruction is squashed
system.cpu00.iew.lsq.thread0.memOrderViolation          510                       # Number of memory ordering violations
system.cpu00.iew.lsq.thread0.squashedStores       320646                       # Number of stores squashed
system.cpu00.iew.lsq.thread0.invAddrSwpfs            0                       # Number of software prefetches ignored due to an invalid address
system.cpu00.iew.lsq.thread0.blockedLoads            0                       # Number of blocked loads due to partial load-store forwarding
system.cpu00.iew.lsq.thread0.rescheduledLoads          261                       # Number of loads that were rescheduled
system.cpu00.iew.lsq.thread0.cacheBlocked       100428                       # Number of times an access to memory failed due to the cache being blocked
system.cpu00.iew.iewIdleCycles                      0                       # Number of cycles IEW is idle
system.cpu00.iew.iewSquashCycles                22581                       # Number of cycles IEW is squashing
system.cpu00.iew.iewBlockCycles                970495                       # Number of cycles IEW is blocking
system.cpu00.iew.iewUnblockCycles              797776                       # Number of cycles IEW is unblocking
system.cpu00.iew.iewDispatchedInsts           6293036                       # Number of instructions dispatched to IQ
system.cpu00.iew.iewDispSquashedInsts            1160                       # Number of squashed instructions skipped by dispatch
system.cpu00.iew.iewDispLoadInsts             1198052                       # Number of dispatched load instructions
system.cpu00.iew.iewDispStoreInsts             532774                       # Number of dispatched store instructions
system.cpu00.iew.iewDispNonSpecInsts             1865                       # Number of dispatched non-speculative instructions
system.cpu00.iew.iewIQFullEvents                44186                       # Number of times the IQ has become full, causing a stall
system.cpu00.iew.iewLSQFullEvents              647908                       # Number of times the LSQ has become full, causing a stall
system.cpu00.iew.memOrderViolationEvents          510                       # Number of memory order violations
system.cpu00.iew.predictedTakenIncorrect         1492                       # Number of branches that were predicted taken incorrectly
system.cpu00.iew.predictedNotTakenIncorrect         2935                       # Number of branches that were predicted not taken incorrectly
system.cpu00.iew.branchMispredicts               4427                       # Number of branch mispredicts detected at execute
system.cpu00.iew.iewExecutedInsts             5920185                       # Number of executed instructions
system.cpu00.iew.iewExecLoadInsts             1186159                       # Number of load instructions executed
system.cpu00.iew.iewExecSquashedInsts            9140                       # Number of squashed instructions skipped in execute
system.cpu00.iew.exec_swp                           0                       # number of swp insts executed
system.cpu00.iew.exec_nop                       66306                       # number of nop insts executed
system.cpu00.iew.exec_refs                    1600416                       # number of memory reference insts executed
system.cpu00.iew.exec_branches                 287837                       # Number of branches executed
system.cpu00.iew.exec_stores                   414257                       # Number of stores executed
system.cpu00.iew.exec_rate                   0.697625                       # Inst execution rate
system.cpu00.iew.wb_sent                      5806144                       # cumulative count of insts sent to commit
system.cpu00.iew.wb_count                     5736320                       # cumulative count of insts written-back
system.cpu00.iew.wb_producers                 4529704                       # num instructions producing a value
system.cpu00.iew.wb_consumers                 5925121                       # num instructions consuming a value
system.cpu00.iew.wb_rate                     0.675959                       # insts written-back per cycle
system.cpu00.iew.wb_fanout                   0.764491                       # average fanout of values written-back
system.cpu00.commit.commitSquashedInsts       1877983                       # The number of squashed insts skipped by commit
system.cpu00.commit.commitNonSpecStalls          2703                       # The number of times commit has been forced to stall to communicate backwards
system.cpu00.commit.branchMispredicts            3659                       # The number of times a branch was mispredicted
system.cpu00.commit.committed_per_cycle::samples      8025511                       # Number of insts commited each cycle
system.cpu00.commit.committed_per_cycle::mean     0.548798                       # Number of insts commited each cycle
system.cpu00.commit.committed_per_cycle::stdev     1.301888                       # Number of insts commited each cycle
system.cpu00.commit.committed_per_cycle::underflows            0      0.00%      0.00% # Number of insts commited each cycle
system.cpu00.commit.committed_per_cycle::0      5803537     72.31%     72.31% # Number of insts commited each cycle
system.cpu00.commit.committed_per_cycle::1      1332729     16.61%     88.92% # Number of insts commited each cycle
system.cpu00.commit.committed_per_cycle::2       494932      6.17%     95.09% # Number of insts commited each cycle
system.cpu00.commit.committed_per_cycle::3       140259      1.75%     96.83% # Number of insts commited each cycle
system.cpu00.commit.committed_per_cycle::4        20652      0.26%     97.09% # Number of insts commited each cycle
system.cpu00.commit.committed_per_cycle::5        80747      1.01%     98.10% # Number of insts commited each cycle
system.cpu00.commit.committed_per_cycle::6        12179      0.15%     98.25% # Number of insts commited each cycle
system.cpu00.commit.committed_per_cycle::7        22210      0.28%     98.53% # Number of insts commited each cycle
system.cpu00.commit.committed_per_cycle::8       118266      1.47%    100.00% # Number of insts commited each cycle
system.cpu00.commit.committed_per_cycle::overflows            0      0.00%    100.00% # Number of insts commited each cycle
system.cpu00.commit.committed_per_cycle::min_value            0                       # Number of insts commited each cycle
system.cpu00.commit.committed_per_cycle::max_value            8                       # Number of insts commited each cycle
system.cpu00.commit.committed_per_cycle::total      8025511                       # Number of insts commited each cycle
system.cpu00.commit.committedInsts            4404385                       # Number of instructions committed
system.cpu00.commit.committedOps              4404385                       # Number of ops (including micro ops) committed
system.cpu00.commit.swp_count                       0                       # Number of s/w prefetches committed
system.cpu00.commit.refs                       814951                       # Number of memory references committed
system.cpu00.commit.loads                      602823                       # Number of loads committed
system.cpu00.commit.membars                      1140                       # Number of memory barriers committed
system.cpu00.commit.branches                   242103                       # Number of branches committed
system.cpu00.commit.fp_insts                  2860888                       # Number of committed floating point instructions.
system.cpu00.commit.int_insts                 1784951                       # Number of committed integer instructions.
system.cpu00.commit.function_calls              75183                       # Number of function calls committed.
system.cpu00.commit.op_class_0::No_OpClass        58349      1.32%      1.32% # Class of committed instruction
system.cpu00.commit.op_class_0::IntAlu         964372     21.90%     23.22% # Class of committed instruction
system.cpu00.commit.op_class_0::IntMult           244      0.01%     23.23% # Class of committed instruction
system.cpu00.commit.op_class_0::IntDiv              0      0.00%     23.23% # Class of committed instruction
system.cpu00.commit.op_class_0::FloatAdd      1713053     38.89%     62.12% # Class of committed instruction
system.cpu00.commit.op_class_0::FloatCmp           10      0.00%     62.12% # Class of committed instruction
system.cpu00.commit.op_class_0::FloatCvt            0      0.00%     62.12% # Class of committed instruction
system.cpu00.commit.op_class_0::FloatMult       852265     19.35%     81.47% # Class of committed instruction
system.cpu00.commit.op_class_0::FloatDiv            0      0.00%     81.47% # Class of committed instruction
system.cpu00.commit.op_class_0::FloatSqrt            0      0.00%     81.47% # Class of committed instruction
system.cpu00.commit.op_class_0::SimdAdd             0      0.00%     81.47% # Class of committed instruction
system.cpu00.commit.op_class_0::SimdAddAcc            0      0.00%     81.47% # Class of committed instruction
system.cpu00.commit.op_class_0::SimdAlu             0      0.00%     81.47% # Class of committed instruction
system.cpu00.commit.op_class_0::SimdCmp             0      0.00%     81.47% # Class of committed instruction
system.cpu00.commit.op_class_0::SimdCvt             0      0.00%     81.47% # Class of committed instruction
system.cpu00.commit.op_class_0::SimdMisc            0      0.00%     81.47% # Class of committed instruction
system.cpu00.commit.op_class_0::SimdMult            0      0.00%     81.47% # Class of committed instruction
system.cpu00.commit.op_class_0::SimdMultAcc            0      0.00%     81.47% # Class of committed instruction
system.cpu00.commit.op_class_0::SimdShift            0      0.00%     81.47% # Class of committed instruction
system.cpu00.commit.op_class_0::SimdShiftAcc            0      0.00%     81.47% # Class of committed instruction
system.cpu00.commit.op_class_0::SimdSqrt            0      0.00%     81.47% # Class of committed instruction
system.cpu00.commit.op_class_0::SimdFloatAdd            0      0.00%     81.47% # Class of committed instruction
system.cpu00.commit.op_class_0::SimdFloatAlu            0      0.00%     81.47% # Class of committed instruction
system.cpu00.commit.op_class_0::SimdFloatCmp            0      0.00%     81.47% # Class of committed instruction
system.cpu00.commit.op_class_0::SimdFloatCvt            0      0.00%     81.47% # Class of committed instruction
system.cpu00.commit.op_class_0::SimdFloatDiv            0      0.00%     81.47% # Class of committed instruction
system.cpu00.commit.op_class_0::SimdFloatMisc            0      0.00%     81.47% # Class of committed instruction
system.cpu00.commit.op_class_0::SimdFloatMult            0      0.00%     81.47% # Class of committed instruction
system.cpu00.commit.op_class_0::SimdFloatMultAcc            0      0.00%     81.47% # Class of committed instruction
system.cpu00.commit.op_class_0::SimdFloatSqrt            0      0.00%     81.47% # Class of committed instruction
system.cpu00.commit.op_class_0::MemRead        603963     13.71%     95.18% # Class of committed instruction
system.cpu00.commit.op_class_0::MemWrite       212129      4.82%    100.00% # Class of committed instruction
system.cpu00.commit.op_class_0::IprAccess            0      0.00%    100.00% # Class of committed instruction
system.cpu00.commit.op_class_0::InstPrefetch            0      0.00%    100.00% # Class of committed instruction
system.cpu00.commit.op_class_0::total         4404385                       # Class of committed instruction
system.cpu00.commit.bw_lim_events              118266                       # number cycles where commit BW limit reached
system.cpu00.rob.rob_reads                   13949360                       # The number of ROB reads
system.cpu00.rob.rob_writes                  12812865                       # The number of ROB writes
system.cpu00.timesIdled                          1477                       # Number of times that the entire CPU went into an idle state and unscheduled itself
system.cpu00.idleCycles                        212664                       # Total number of cycles that the CPU has spent unscheduled due to idling
system.cpu00.quiesceCycles                     299914                       # Total number of cycles that CPU has spent quiesced or waiting for an interrupt
system.cpu00.committedInsts                   4346036                       # Number of Instructions Simulated
system.cpu00.committedOps                     4346036                       # Number of Ops (including micro ops) Simulated
system.cpu00.cpi                             1.952629                       # CPI: Cycles Per Instruction
system.cpu00.cpi_total                       1.952629                       # CPI: Total CPI of All Threads
system.cpu00.ipc                             0.512130                       # IPC: Instructions Per Cycle
system.cpu00.ipc_total                       0.512130                       # IPC: Total IPC of All Threads
system.cpu00.int_regfile_reads                4552986                       # number of integer regfile reads
system.cpu00.int_regfile_writes               2266491                       # number of integer regfile writes
system.cpu00.fp_regfile_reads                 4016756                       # number of floating regfile reads
system.cpu00.fp_regfile_writes                2836036                       # number of floating regfile writes
system.cpu00.misc_regfile_reads                  3015                       # number of misc regfile reads
system.cpu00.misc_regfile_writes                 2493                       # number of misc regfile writes
system.cpu00.dcache.tags.replacements           69207                       # number of replacements
system.cpu00.dcache.tags.tagsinuse          63.789657                       # Cycle average of tags in use
system.cpu00.dcache.tags.total_refs           1137772                       # Total number of references to valid blocks.
system.cpu00.dcache.tags.sampled_refs           69271                       # Sample count of references to valid blocks.
system.cpu00.dcache.tags.avg_refs           16.424940                       # Average number of references to valid blocks.
system.cpu00.dcache.tags.warmup_cycle        85990626                       # Cycle when the warmup percentage was hit.
system.cpu00.dcache.tags.occ_blocks::cpu00.data    63.789657                       # Average occupied blocks per requestor
system.cpu00.dcache.tags.occ_percent::cpu00.data     0.996713                       # Average percentage of cache occupancy
system.cpu00.dcache.tags.occ_percent::total     0.996713                       # Average percentage of cache occupancy
system.cpu00.dcache.tags.occ_task_id_blocks::1024           64                       # Occupied blocks per task id
system.cpu00.dcache.tags.age_task_id_blocks_1024::0           47                       # Occupied blocks per task id
system.cpu00.dcache.tags.age_task_id_blocks_1024::1           16                       # Occupied blocks per task id
system.cpu00.dcache.tags.age_task_id_blocks_1024::2            1                       # Occupied blocks per task id
system.cpu00.dcache.tags.occ_task_id_percent::1024            1                       # Percentage of cache occupancy per task id
system.cpu00.dcache.tags.tag_accesses         2651087                       # Number of tag accesses
system.cpu00.dcache.tags.data_accesses        2651087                       # Number of data accesses
system.cpu00.dcache.ReadReq_hits::cpu00.data      1000569                       # number of ReadReq hits
system.cpu00.dcache.ReadReq_hits::total       1000569                       # number of ReadReq hits
system.cpu00.dcache.WriteReq_hits::cpu00.data       134909                       # number of WriteReq hits
system.cpu00.dcache.WriteReq_hits::total       134909                       # number of WriteReq hits
system.cpu00.dcache.LoadLockedReq_hits::cpu00.data          970                       # number of LoadLockedReq hits
system.cpu00.dcache.LoadLockedReq_hits::total          970                       # number of LoadLockedReq hits
system.cpu00.dcache.StoreCondReq_hits::cpu00.data         1232                       # number of StoreCondReq hits
system.cpu00.dcache.StoreCondReq_hits::total         1232                       # number of StoreCondReq hits
system.cpu00.dcache.demand_hits::cpu00.data      1135478                       # number of demand (read+write) hits
system.cpu00.dcache.demand_hits::total        1135478                       # number of demand (read+write) hits
system.cpu00.dcache.overall_hits::cpu00.data      1135478                       # number of overall hits
system.cpu00.dcache.overall_hits::total       1135478                       # number of overall hits
system.cpu00.dcache.ReadReq_misses::cpu00.data        76819                       # number of ReadReq misses
system.cpu00.dcache.ReadReq_misses::total        76819                       # number of ReadReq misses
system.cpu00.dcache.WriteReq_misses::cpu00.data        75974                       # number of WriteReq misses
system.cpu00.dcache.WriteReq_misses::total        75974                       # number of WriteReq misses
system.cpu00.dcache.LoadLockedReq_misses::cpu00.data          325                       # number of LoadLockedReq misses
system.cpu00.dcache.LoadLockedReq_misses::total          325                       # number of LoadLockedReq misses
system.cpu00.dcache.StoreCondReq_misses::cpu00.data           13                       # number of StoreCondReq misses
system.cpu00.dcache.StoreCondReq_misses::total           13                       # number of StoreCondReq misses
system.cpu00.dcache.demand_misses::cpu00.data       152793                       # number of demand (read+write) misses
system.cpu00.dcache.demand_misses::total       152793                       # number of demand (read+write) misses
system.cpu00.dcache.overall_misses::cpu00.data       152793                       # number of overall misses
system.cpu00.dcache.overall_misses::total       152793                       # number of overall misses
system.cpu00.dcache.ReadReq_miss_latency::cpu00.data   6468557940                       # number of ReadReq miss cycles
system.cpu00.dcache.ReadReq_miss_latency::total   6468557940                       # number of ReadReq miss cycles
system.cpu00.dcache.WriteReq_miss_latency::cpu00.data  10840060974                       # number of WriteReq miss cycles
system.cpu00.dcache.WriteReq_miss_latency::total  10840060974                       # number of WriteReq miss cycles
system.cpu00.dcache.LoadLockedReq_miss_latency::cpu00.data      3552660                       # number of LoadLockedReq miss cycles
system.cpu00.dcache.LoadLockedReq_miss_latency::total      3552660                       # number of LoadLockedReq miss cycles
system.cpu00.dcache.StoreCondReq_miss_latency::cpu00.data       101007                       # number of StoreCondReq miss cycles
system.cpu00.dcache.StoreCondReq_miss_latency::total       101007                       # number of StoreCondReq miss cycles
system.cpu00.dcache.demand_miss_latency::cpu00.data  17308618914                       # number of demand (read+write) miss cycles
system.cpu00.dcache.demand_miss_latency::total  17308618914                       # number of demand (read+write) miss cycles
system.cpu00.dcache.overall_miss_latency::cpu00.data  17308618914                       # number of overall miss cycles
system.cpu00.dcache.overall_miss_latency::total  17308618914                       # number of overall miss cycles
system.cpu00.dcache.ReadReq_accesses::cpu00.data      1077388                       # number of ReadReq accesses(hits+misses)
system.cpu00.dcache.ReadReq_accesses::total      1077388                       # number of ReadReq accesses(hits+misses)
system.cpu00.dcache.WriteReq_accesses::cpu00.data       210883                       # number of WriteReq accesses(hits+misses)
system.cpu00.dcache.WriteReq_accesses::total       210883                       # number of WriteReq accesses(hits+misses)
system.cpu00.dcache.LoadLockedReq_accesses::cpu00.data         1295                       # number of LoadLockedReq accesses(hits+misses)
system.cpu00.dcache.LoadLockedReq_accesses::total         1295                       # number of LoadLockedReq accesses(hits+misses)
system.cpu00.dcache.StoreCondReq_accesses::cpu00.data         1245                       # number of StoreCondReq accesses(hits+misses)
system.cpu00.dcache.StoreCondReq_accesses::total         1245                       # number of StoreCondReq accesses(hits+misses)
system.cpu00.dcache.demand_accesses::cpu00.data      1288271                       # number of demand (read+write) accesses
system.cpu00.dcache.demand_accesses::total      1288271                       # number of demand (read+write) accesses
system.cpu00.dcache.overall_accesses::cpu00.data      1288271                       # number of overall (read+write) accesses
system.cpu00.dcache.overall_accesses::total      1288271                       # number of overall (read+write) accesses
system.cpu00.dcache.ReadReq_miss_rate::cpu00.data     0.071301                       # miss rate for ReadReq accesses
system.cpu00.dcache.ReadReq_miss_rate::total     0.071301                       # miss rate for ReadReq accesses
system.cpu00.dcache.WriteReq_miss_rate::cpu00.data     0.360266                       # miss rate for WriteReq accesses
system.cpu00.dcache.WriteReq_miss_rate::total     0.360266                       # miss rate for WriteReq accesses
system.cpu00.dcache.LoadLockedReq_miss_rate::cpu00.data     0.250965                       # miss rate for LoadLockedReq accesses
system.cpu00.dcache.LoadLockedReq_miss_rate::total     0.250965                       # miss rate for LoadLockedReq accesses
system.cpu00.dcache.StoreCondReq_miss_rate::cpu00.data     0.010442                       # miss rate for StoreCondReq accesses
system.cpu00.dcache.StoreCondReq_miss_rate::total     0.010442                       # miss rate for StoreCondReq accesses
system.cpu00.dcache.demand_miss_rate::cpu00.data     0.118603                       # miss rate for demand accesses
system.cpu00.dcache.demand_miss_rate::total     0.118603                       # miss rate for demand accesses
system.cpu00.dcache.overall_miss_rate::cpu00.data     0.118603                       # miss rate for overall accesses
system.cpu00.dcache.overall_miss_rate::total     0.118603                       # miss rate for overall accesses
system.cpu00.dcache.ReadReq_avg_miss_latency::cpu00.data 84205.182832                       # average ReadReq miss latency
system.cpu00.dcache.ReadReq_avg_miss_latency::total 84205.182832                       # average ReadReq miss latency
system.cpu00.dcache.WriteReq_avg_miss_latency::cpu00.data 142681.193224                       # average WriteReq miss latency
system.cpu00.dcache.WriteReq_avg_miss_latency::total 142681.193224                       # average WriteReq miss latency
system.cpu00.dcache.LoadLockedReq_avg_miss_latency::cpu00.data 10931.261538                       # average LoadLockedReq miss latency
system.cpu00.dcache.LoadLockedReq_avg_miss_latency::total 10931.261538                       # average LoadLockedReq miss latency
system.cpu00.dcache.StoreCondReq_avg_miss_latency::cpu00.data  7769.769231                       # average StoreCondReq miss latency
system.cpu00.dcache.StoreCondReq_avg_miss_latency::total  7769.769231                       # average StoreCondReq miss latency
system.cpu00.dcache.demand_avg_miss_latency::cpu00.data 113281.491390                       # average overall miss latency
system.cpu00.dcache.demand_avg_miss_latency::total 113281.491390                       # average overall miss latency
system.cpu00.dcache.overall_avg_miss_latency::cpu00.data 113281.491390                       # average overall miss latency
system.cpu00.dcache.overall_avg_miss_latency::total 113281.491390                       # average overall miss latency
system.cpu00.dcache.blocked_cycles::no_mshrs       344965                       # number of cycles access was blocked
system.cpu00.dcache.blocked_cycles::no_targets           93                       # number of cycles access was blocked
system.cpu00.dcache.blocked::no_mshrs           10866                       # number of cycles access was blocked
system.cpu00.dcache.blocked::no_targets            14                       # number of cycles access was blocked
system.cpu00.dcache.avg_blocked_cycles::no_mshrs    31.747193                       # average number of cycles each access was blocked
system.cpu00.dcache.avg_blocked_cycles::no_targets     6.642857                       # average number of cycles each access was blocked
system.cpu00.dcache.fast_writes                     0                       # number of fast writes performed
system.cpu00.dcache.cache_copies                    0                       # number of cache copies performed
system.cpu00.dcache.writebacks::writebacks        61258                       # number of writebacks
system.cpu00.dcache.writebacks::total           61258                       # number of writebacks
system.cpu00.dcache.ReadReq_mshr_hits::cpu00.data        46629                       # number of ReadReq MSHR hits
system.cpu00.dcache.ReadReq_mshr_hits::total        46629                       # number of ReadReq MSHR hits
system.cpu00.dcache.WriteReq_mshr_hits::cpu00.data        36826                       # number of WriteReq MSHR hits
system.cpu00.dcache.WriteReq_mshr_hits::total        36826                       # number of WriteReq MSHR hits
system.cpu00.dcache.LoadLockedReq_mshr_hits::cpu00.data          140                       # number of LoadLockedReq MSHR hits
system.cpu00.dcache.LoadLockedReq_mshr_hits::total          140                       # number of LoadLockedReq MSHR hits
system.cpu00.dcache.demand_mshr_hits::cpu00.data        83455                       # number of demand (read+write) MSHR hits
system.cpu00.dcache.demand_mshr_hits::total        83455                       # number of demand (read+write) MSHR hits
system.cpu00.dcache.overall_mshr_hits::cpu00.data        83455                       # number of overall MSHR hits
system.cpu00.dcache.overall_mshr_hits::total        83455                       # number of overall MSHR hits
system.cpu00.dcache.ReadReq_mshr_misses::cpu00.data        30190                       # number of ReadReq MSHR misses
system.cpu00.dcache.ReadReq_mshr_misses::total        30190                       # number of ReadReq MSHR misses
system.cpu00.dcache.WriteReq_mshr_misses::cpu00.data        39148                       # number of WriteReq MSHR misses
system.cpu00.dcache.WriteReq_mshr_misses::total        39148                       # number of WriteReq MSHR misses
system.cpu00.dcache.LoadLockedReq_mshr_misses::cpu00.data          185                       # number of LoadLockedReq MSHR misses
system.cpu00.dcache.LoadLockedReq_mshr_misses::total          185                       # number of LoadLockedReq MSHR misses
system.cpu00.dcache.StoreCondReq_mshr_misses::cpu00.data           13                       # number of StoreCondReq MSHR misses
system.cpu00.dcache.StoreCondReq_mshr_misses::total           13                       # number of StoreCondReq MSHR misses
system.cpu00.dcache.demand_mshr_misses::cpu00.data        69338                       # number of demand (read+write) MSHR misses
system.cpu00.dcache.demand_mshr_misses::total        69338                       # number of demand (read+write) MSHR misses
system.cpu00.dcache.overall_mshr_misses::cpu00.data        69338                       # number of overall MSHR misses
system.cpu00.dcache.overall_mshr_misses::total        69338                       # number of overall MSHR misses
system.cpu00.dcache.ReadReq_mshr_miss_latency::cpu00.data   2563814241                       # number of ReadReq MSHR miss cycles
system.cpu00.dcache.ReadReq_mshr_miss_latency::total   2563814241                       # number of ReadReq MSHR miss cycles
system.cpu00.dcache.WriteReq_mshr_miss_latency::cpu00.data   4831560751                       # number of WriteReq MSHR miss cycles
system.cpu00.dcache.WriteReq_mshr_miss_latency::total   4831560751                       # number of WriteReq MSHR miss cycles
system.cpu00.dcache.LoadLockedReq_mshr_miss_latency::cpu00.data      1623078                       # number of LoadLockedReq MSHR miss cycles
system.cpu00.dcache.LoadLockedReq_mshr_miss_latency::total      1623078                       # number of LoadLockedReq MSHR miss cycles
system.cpu00.dcache.StoreCondReq_mshr_miss_latency::cpu00.data        85914                       # number of StoreCondReq MSHR miss cycles
system.cpu00.dcache.StoreCondReq_mshr_miss_latency::total        85914                       # number of StoreCondReq MSHR miss cycles
system.cpu00.dcache.demand_mshr_miss_latency::cpu00.data   7395374992                       # number of demand (read+write) MSHR miss cycles
system.cpu00.dcache.demand_mshr_miss_latency::total   7395374992                       # number of demand (read+write) MSHR miss cycles
system.cpu00.dcache.overall_mshr_miss_latency::cpu00.data   7395374992                       # number of overall MSHR miss cycles
system.cpu00.dcache.overall_mshr_miss_latency::total   7395374992                       # number of overall MSHR miss cycles
system.cpu00.dcache.ReadReq_mshr_miss_rate::cpu00.data     0.028021                       # mshr miss rate for ReadReq accesses
system.cpu00.dcache.ReadReq_mshr_miss_rate::total     0.028021                       # mshr miss rate for ReadReq accesses
system.cpu00.dcache.WriteReq_mshr_miss_rate::cpu00.data     0.185638                       # mshr miss rate for WriteReq accesses
system.cpu00.dcache.WriteReq_mshr_miss_rate::total     0.185638                       # mshr miss rate for WriteReq accesses
system.cpu00.dcache.LoadLockedReq_mshr_miss_rate::cpu00.data     0.142857                       # mshr miss rate for LoadLockedReq accesses
system.cpu00.dcache.LoadLockedReq_mshr_miss_rate::total     0.142857                       # mshr miss rate for LoadLockedReq accesses
system.cpu00.dcache.StoreCondReq_mshr_miss_rate::cpu00.data     0.010442                       # mshr miss rate for StoreCondReq accesses
system.cpu00.dcache.StoreCondReq_mshr_miss_rate::total     0.010442                       # mshr miss rate for StoreCondReq accesses
system.cpu00.dcache.demand_mshr_miss_rate::cpu00.data     0.053823                       # mshr miss rate for demand accesses
system.cpu00.dcache.demand_mshr_miss_rate::total     0.053823                       # mshr miss rate for demand accesses
system.cpu00.dcache.overall_mshr_miss_rate::cpu00.data     0.053823                       # mshr miss rate for overall accesses
system.cpu00.dcache.overall_mshr_miss_rate::total     0.053823                       # mshr miss rate for overall accesses
system.cpu00.dcache.ReadReq_avg_mshr_miss_latency::cpu00.data 84922.631368                       # average ReadReq mshr miss latency
system.cpu00.dcache.ReadReq_avg_mshr_miss_latency::total 84922.631368                       # average ReadReq mshr miss latency
system.cpu00.dcache.WriteReq_avg_mshr_miss_latency::cpu00.data 123417.818305                       # average WriteReq mshr miss latency
system.cpu00.dcache.WriteReq_avg_mshr_miss_latency::total 123417.818305                       # average WriteReq mshr miss latency
system.cpu00.dcache.LoadLockedReq_avg_mshr_miss_latency::cpu00.data  8773.394595                       # average LoadLockedReq mshr miss latency
system.cpu00.dcache.LoadLockedReq_avg_mshr_miss_latency::total  8773.394595                       # average LoadLockedReq mshr miss latency
system.cpu00.dcache.StoreCondReq_avg_mshr_miss_latency::cpu00.data  6608.769231                       # average StoreCondReq mshr miss latency
system.cpu00.dcache.StoreCondReq_avg_mshr_miss_latency::total  6608.769231                       # average StoreCondReq mshr miss latency
system.cpu00.dcache.demand_avg_mshr_miss_latency::cpu00.data 106656.883556                       # average overall mshr miss latency
system.cpu00.dcache.demand_avg_mshr_miss_latency::total 106656.883556                       # average overall mshr miss latency
system.cpu00.dcache.overall_avg_mshr_miss_latency::cpu00.data 106656.883556                       # average overall mshr miss latency
system.cpu00.dcache.overall_avg_mshr_miss_latency::total 106656.883556                       # average overall mshr miss latency
system.cpu00.dcache.no_allocate_misses              0                       # Number of misses that were no-allocate
system.cpu00.icache.tags.replacements            7174                       # number of replacements
system.cpu00.icache.tags.tagsinuse         507.057162                       # Cycle average of tags in use
[...]
system.tol2bus.pkt_count_system.cpu06.dcache.mem_side::system.l2.cpu_side       163737                       # Packet count per connected master and slave (bytes)
system.tol2bus.pkt_count_system.cpu07.icache.mem_side::system.l2.cpu_side         1006                       # Packet count per connected master and slave (bytes)
system.tol2bus.pkt_count_system.cpu07.dcache.mem_side::system.l2.cpu_side       158072                       # Packet count per connected master and slave (bytes)
system.tol2bus.pkt_count_system.cpu08.icache.mem_side::system.l2.cpu_side          850                       # Packet count per connected master and slave (bytes)
system.tol2bus.pkt_count_system.cpu08.dcache.mem_side::system.l2.cpu_side       187500                       # Packet count per connected master and slave (bytes)
system.tol2bus.pkt_count_system.cpu09.icache.mem_side::system.l2.cpu_side          999                       # Packet count per connected master and slave (bytes)
system.tol2bus.pkt_count_system.cpu09.dcache.mem_side::system.l2.cpu_side       157594                       # Packet count per connected master and slave (bytes)
system.tol2bus.pkt_count_system.cpu10.icache.mem_side::system.l2.cpu_side          853                       # Packet count per connected master and slave (bytes)
system.tol2bus.pkt_count_system.cpu10.dcache.mem_side::system.l2.cpu_side       162487                       # Packet count per connected master and slave (bytes)
system.tol2bus.pkt_count_system.cpu11.icache.mem_side::system.l2.cpu_side          999                       # Packet count per connected master and slave (bytes)
system.tol2bus.pkt_count_system.cpu11.dcache.mem_side::system.l2.cpu_side       156887                       # Packet count per connected master and slave (bytes)
system.tol2bus.pkt_count_system.cpu12.icache.mem_side::system.l2.cpu_side         1097                       # Packet count per connected master and slave (bytes)
system.tol2bus.pkt_count_system.cpu12.dcache.mem_side::system.l2.cpu_side       175111                       # Packet count per connected master and slave (bytes)
system.tol2bus.pkt_count_system.cpu13.icache.mem_side::system.l2.cpu_side          849                       # Packet count per connected master and slave (bytes)
system.tol2bus.pkt_count_system.cpu13.dcache.mem_side::system.l2.cpu_side       156987                       # Packet count per connected master and slave (bytes)
system.tol2bus.pkt_count_system.cpu14.icache.mem_side::system.l2.cpu_side         1014                       # Packet count per connected master and slave (bytes)
system.tol2bus.pkt_count_system.cpu14.dcache.mem_side::system.l2.cpu_side       164958                       # Packet count per connected master and slave (bytes)
system.tol2bus.pkt_count_system.cpu15.icache.mem_side::system.l2.cpu_side         1007                       # Packet count per connected master and slave (bytes)
system.tol2bus.pkt_count_system.cpu15.dcache.mem_side::system.l2.cpu_side       163432                       # Packet count per connected master and slave (bytes)
system.tol2bus.pkt_count::total               2696062                       # Packet count per connected master and slave (bytes)
system.tol2bus.pkt_size_system.cpu00.icache.mem_side::system.l2.cpu_side       951040                       # Cumulative packet size per connected master and slave (bytes)
system.tol2bus.pkt_size_system.cpu00.dcache.mem_side::system.l2.cpu_side      8336576                       # Cumulative packet size per connected master and slave (bytes)
system.tol2bus.pkt_size_system.cpu01.icache.mem_side::system.l2.cpu_side        37312                       # Cumulative packet size per connected master and slave (bytes)
system.tol2bus.pkt_size_system.cpu01.dcache.mem_side::system.l2.cpu_side      6390528                       # Cumulative packet size per connected master and slave (bytes)
system.tol2bus.pkt_size_system.cpu02.icache.mem_side::system.l2.cpu_side        29888                       # Cumulative packet size per connected master and slave (bytes)
system.tol2bus.pkt_size_system.cpu02.dcache.mem_side::system.l2.cpu_side      6599808                       # Cumulative packet size per connected master and slave (bytes)
system.tol2bus.pkt_size_system.cpu03.icache.mem_side::system.l2.cpu_side        34752                       # Cumulative packet size per connected master and slave (bytes)
system.tol2bus.pkt_size_system.cpu03.dcache.mem_side::system.l2.cpu_side      6439680                       # Cumulative packet size per connected master and slave (bytes)
system.tol2bus.pkt_size_system.cpu04.icache.mem_side::system.l2.cpu_side        28736                       # Cumulative packet size per connected master and slave (bytes)
system.tol2bus.pkt_size_system.cpu04.dcache.mem_side::system.l2.cpu_side      7197312                       # Cumulative packet size per connected master and slave (bytes)
system.tol2bus.pkt_size_system.cpu05.icache.mem_side::system.l2.cpu_side        34816                       # Cumulative packet size per connected master and slave (bytes)
system.tol2bus.pkt_size_system.cpu05.dcache.mem_side::system.l2.cpu_side      6461248                       # Cumulative packet size per connected master and slave (bytes)
system.tol2bus.pkt_size_system.cpu06.icache.mem_side::system.l2.cpu_side        28736                       # Cumulative packet size per connected master and slave (bytes)
system.tol2bus.pkt_size_system.cpu06.dcache.mem_side::system.l2.cpu_side      6736640                       # Cumulative packet size per connected master and slave (bytes)
system.tol2bus.pkt_size_system.cpu07.icache.mem_side::system.l2.cpu_side        34944                       # Cumulative packet size per connected master and slave (bytes)
system.tol2bus.pkt_size_system.cpu07.dcache.mem_side::system.l2.cpu_side      6540928                       # Cumulative packet size per connected master and slave (bytes)
system.tol2bus.pkt_size_system.cpu08.icache.mem_side::system.l2.cpu_side        28672                       # Cumulative packet size per connected master and slave (bytes)
system.tol2bus.pkt_size_system.cpu08.dcache.mem_side::system.l2.cpu_side      7759424                       # Cumulative packet size per connected master and slave (bytes)
system.tol2bus.pkt_size_system.cpu09.icache.mem_side::system.l2.cpu_side        34688                       # Cumulative packet size per connected master and slave (bytes)
system.tol2bus.pkt_size_system.cpu09.dcache.mem_side::system.l2.cpu_side      6519104                       # Cumulative packet size per connected master and slave (bytes)
system.tol2bus.pkt_size_system.cpu10.icache.mem_side::system.l2.cpu_side        28800                       # Cumulative packet size per connected master and slave (bytes)
system.tol2bus.pkt_size_system.cpu10.dcache.mem_side::system.l2.cpu_side      6701504                       # Cumulative packet size per connected master and slave (bytes)
system.tol2bus.pkt_size_system.cpu11.icache.mem_side::system.l2.cpu_side        34688                       # Cumulative packet size per connected master and slave (bytes)
system.tol2bus.pkt_size_system.cpu11.dcache.mem_side::system.l2.cpu_side      6475136                       # Cumulative packet size per connected master and slave (bytes)
system.tol2bus.pkt_size_system.cpu12.icache.mem_side::system.l2.cpu_side        38528                       # Cumulative packet size per connected master and slave (bytes)
system.tol2bus.pkt_size_system.cpu12.dcache.mem_side::system.l2.cpu_side      7219392                       # Cumulative packet size per connected master and slave (bytes)
system.tol2bus.pkt_size_system.cpu13.icache.mem_side::system.l2.cpu_side        28672                       # Cumulative packet size per connected master and slave (bytes)
system.tol2bus.pkt_size_system.cpu13.dcache.mem_side::system.l2.cpu_side      6495744                       # Cumulative packet size per connected master and slave (bytes)
system.tol2bus.pkt_size_system.cpu14.icache.mem_side::system.l2.cpu_side        35200                       # Cumulative packet size per connected master and slave (bytes)
system.tol2bus.pkt_size_system.cpu14.dcache.mem_side::system.l2.cpu_side      6789888                       # Cumulative packet size per connected master and slave (bytes)
system.tol2bus.pkt_size_system.cpu15.icache.mem_side::system.l2.cpu_side        34944                       # Cumulative packet size per connected master and slave (bytes)
system.tol2bus.pkt_size_system.cpu15.dcache.mem_side::system.l2.cpu_side      6776384                       # Cumulative packet size per connected master and slave (bytes)
system.tol2bus.pkt_size::total              110883712                       # Cumulative packet size per connected master and slave (bytes)
system.tol2bus.snoops                          137020                       # Total snoops (count)
system.tol2bus.snoop_fanout::samples          1038435                       # Request fanout histogram
system.tol2bus.snoop_fanout::mean            0.077760                       # Request fanout histogram
system.tol2bus.snoop_fanout::stdev           0.845010                       # Request fanout histogram
system.tol2bus.snoop_fanout::underflows             0      0.00%      0.00% # Request fanout histogram
system.tol2bus.snoop_fanout::0                1021667     98.39%     98.39% # Request fanout histogram
system.tol2bus.snoop_fanout::1                   6717      0.65%     99.03% # Request fanout histogram
system.tol2bus.snoop_fanout::2                   1639      0.16%     99.19% # Request fanout histogram
system.tol2bus.snoop_fanout::3                   1077      0.10%     99.29% # Request fanout histogram
system.tol2bus.snoop_fanout::4                    836      0.08%     99.37% # Request fanout histogram
system.tol2bus.snoop_fanout::5                    803      0.08%     99.45% # Request fanout histogram
system.tol2bus.snoop_fanout::6                    688      0.07%     99.52% # Request fanout histogram
system.tol2bus.snoop_fanout::7                    588      0.06%     99.57% # Request fanout histogram
system.tol2bus.snoop_fanout::8                    570      0.05%     99.63% # Request fanout histogram
system.tol2bus.snoop_fanout::9                    548      0.05%     99.68% # Request fanout histogram
system.tol2bus.snoop_fanout::10                   493      0.05%     99.73% # Request fanout histogram
system.tol2bus.snoop_fanout::11                   492      0.05%     99.78% # Request fanout histogram
system.tol2bus.snoop_fanout::12                   474      0.05%     99.82% # Request fanout histogram
system.tol2bus.snoop_fanout::13                   474      0.05%     99.87% # Request fanout histogram
system.tol2bus.snoop_fanout::14                   475      0.05%     99.91% # Request fanout histogram
system.tol2bus.snoop_fanout::15                   718      0.07%     99.98% # Request fanout histogram
system.tol2bus.snoop_fanout::16                   176      0.02%    100.00% # Request fanout histogram
system.tol2bus.snoop_fanout::17                     0      0.00%    100.00% # Request fanout histogram
system.tol2bus.snoop_fanout::18                     0      0.00%    100.00% # Request fanout histogram
system.tol2bus.snoop_fanout::19                     0      0.00%    100.00% # Request fanout histogram
system.tol2bus.snoop_fanout::20                     0      0.00%    100.00% # Request fanout histogram
system.tol2bus.snoop_fanout::21                     0      0.00%    100.00% # Request fanout histogram
system.tol2bus.snoop_fanout::22                     0      0.00%    100.00% # Request fanout histogram
system.tol2bus.snoop_fanout::23                     0      0.00%    100.00% # Request fanout histogram
system.tol2bus.snoop_fanout::24                     0      0.00%    100.00% # Request fanout histogram
system.tol2bus.snoop_fanout::25                     0      0.00%    100.00% # Request fanout histogram
system.tol2bus.snoop_fanout::26                     0      0.00%    100.00% # Request fanout histogram
system.tol2bus.snoop_fanout::27                     0      0.00%    100.00% # Request fanout histogram
system.tol2bus.snoop_fanout::28                     0      0.00%    100.00% # Request fanout histogram
system.tol2bus.snoop_fanout::29                     0      0.00%    100.00% # Request fanout histogram
system.tol2bus.snoop_fanout::30                     0      0.00%    100.00% # Request fanout histogram
system.tol2bus.snoop_fanout::31                     0      0.00%    100.00% # Request fanout histogram
system.tol2bus.snoop_fanout::32                     0      0.00%    100.00% # Request fanout histogram
system.tol2bus.snoop_fanout::overflows              0      0.00%    100.00% # Request fanout histogram
system.tol2bus.snoop_fanout::min_value              0                       # Request fanout histogram
system.tol2bus.snoop_fanout::max_value             16                       # Request fanout histogram
system.tol2bus.snoop_fanout::total            1038435                       # Request fanout histogram
system.tol2bus.reqLayer0.occupancy         4037408517                       # Layer occupancy (ticks)
system.tol2bus.reqLayer0.utilization             39.6                       # Layer utilization (%)
system.tol2bus.respLayer0.occupancy          27144954                       # Layer occupancy (ticks)
system.tol2bus.respLayer0.utilization             0.3                       # Layer utilization (%)
system.tol2bus.respLayer1.occupancy         244189717                       # Layer occupancy (ticks)
system.tol2bus.respLayer1.utilization             2.4                       # Layer utilization (%)
system.tol2bus.respLayer2.occupancy           1706605                       # Layer occupancy (ticks)
system.tol2bus.respLayer2.utilization             0.0                       # Layer utilization (%)
system.tol2bus.respLayer3.occupancy         183297168                       # Layer occupancy (ticks)
system.tol2bus.respLayer3.utilization             1.8                       # Layer utilization (%)
system.tol2bus.respLayer4.occupancy           1476533                       # Layer occupancy (ticks)
system.tol2bus.respLayer4.utilization             0.0                       # Layer utilization (%)
system.tol2bus.respLayer5.occupancy         190310816                       # Layer occupancy (ticks)
system.tol2bus.respLayer5.utilization             1.9                       # Layer utilization (%)
system.tol2bus.respLayer6.occupancy           1619156                       # Layer occupancy (ticks)
system.tol2bus.respLayer6.utilization             0.0                       # Layer utilization (%)
system.tol2bus.respLayer7.occupancy         183651861                       # Layer occupancy (ticks)
system.tol2bus.respLayer7.utilization             1.8                       # Layer utilization (%)
system.tol2bus.respLayer8.occupancy           1423932                       # Layer occupancy (ticks)
system.tol2bus.respLayer8.utilization             0.0                       # Layer utilization (%)
system.tol2bus.respLayer9.occupancy         205114678                       # Layer occupancy (ticks)
system.tol2bus.respLayer9.utilization             2.0                       # Layer utilization (%)
system.tol2bus.respLayer10.occupancy          1631118                       # Layer occupancy (ticks)
system.tol2bus.respLayer10.utilization            0.0                       # Layer utilization (%)
system.tol2bus.respLayer11.occupancy        183811518                       # Layer occupancy (ticks)
system.tol2bus.respLayer11.utilization            1.8                       # Layer utilization (%)
system.tol2bus.respLayer12.occupancy          1428958                       # Layer occupancy (ticks)
system.tol2bus.respLayer12.utilization            0.0                       # Layer utilization (%)
system.tol2bus.respLayer13.occupancy        192553780                       # Layer occupancy (ticks)
system.tol2bus.respLayer13.utilization            1.9                       # Layer utilization (%)
system.tol2bus.respLayer14.occupancy          1625320                       # Layer occupancy (ticks)
system.tol2bus.respLayer14.utilization            0.0                       # Layer utilization (%)
system.tol2bus.respLayer15.occupancy        185704704                       # Layer occupancy (ticks)
system.tol2bus.respLayer15.utilization            1.8                       # Layer utilization (%)
system.tol2bus.respLayer16.occupancy          1427925                       # Layer occupancy (ticks)
system.tol2bus.respLayer16.utilization            0.0                       # Layer utilization (%)
system.tol2bus.respLayer17.occupancy        220481170                       # Layer occupancy (ticks)
system.tol2bus.respLayer17.utilization            2.2                       # Layer utilization (%)
system.tol2bus.respLayer18.occupancy          1619819                       # Layer occupancy (ticks)
system.tol2bus.respLayer18.utilization            0.0                       # Layer utilization (%)
system.tol2bus.respLayer19.occupancy        185069476                       # Layer occupancy (ticks)
system.tol2bus.respLayer19.utilization            1.8                       # Layer utilization (%)
system.tol2bus.respLayer20.occupancy          1438425                       # Layer occupancy (ticks)
system.tol2bus.respLayer20.utilization            0.0                       # Layer utilization (%)
system.tol2bus.respLayer21.occupancy        191096207                       # Layer occupancy (ticks)
system.tol2bus.respLayer21.utilization            1.9                       # Layer utilization (%)
system.tol2bus.respLayer22.occupancy          1614243                       # Layer occupancy (ticks)
system.tol2bus.respLayer22.utilization            0.0                       # Layer utilization (%)
system.tol2bus.respLayer23.occupancy        184382003                       # Layer occupancy (ticks)
system.tol2bus.respLayer23.utilization            1.8                       # Layer utilization (%)
system.tol2bus.respLayer24.occupancy          1754941                       # Layer occupancy (ticks)
system.tol2bus.respLayer24.utilization            0.0                       # Layer utilization (%)
system.tol2bus.respLayer25.occupancy        206071943                       # Layer occupancy (ticks)
system.tol2bus.respLayer25.utilization            2.0                       # Layer utilization (%)
system.tol2bus.respLayer26.occupancy          1420156                       # Layer occupancy (ticks)
system.tol2bus.respLayer26.utilization            0.0                       # Layer utilization (%)
system.tol2bus.respLayer27.occupancy        184476115                       # Layer occupancy (ticks)
system.tol2bus.respLayer27.utilization            1.8                       # Layer utilization (%)
system.tol2bus.respLayer28.occupancy          1643898                       # Layer occupancy (ticks)
system.tol2bus.respLayer28.utilization            0.0                       # Layer utilization (%)
system.tol2bus.respLayer29.occupancy        194239586                       # Layer occupancy (ticks)
system.tol2bus.respLayer29.utilization            1.9                       # Layer utilization (%)
system.tol2bus.respLayer30.occupancy          1620714                       # Layer occupancy (ticks)
system.tol2bus.respLayer30.utilization            0.0                       # Layer utilization (%)
system.tol2bus.respLayer31.occupancy        192057782                       # Layer occupancy (ticks)
system.tol2bus.respLayer31.utilization            1.9                       # Layer utilization (%)

---------- End Simulation Statistics   ----------
