
---------- Begin Simulation Statistics ----------
sim_seconds                                  0.010239                       # Number of seconds simulated
sim_ticks                                 10239416280                       # Number of ticks simulated
final_tick                                10239416280                       # Number of ticks from beginning of simulation (restored from checkpoints and never reset)
sim_freq                                 1000000000000                       # Frequency of simulated ticks
host_inst_rate                                 109018                       # Simulator instruction rate (inst/s)
host_op_rate                                   109018                       # Simulator op (including micro ops) rate (op/s)
host_tick_rate                               17437418                       # Simulator tick rate (ticks/s)
host_mem_usage                                 692716                       # Number of bytes of host memory used
host_seconds                                   587.21                       # Real time elapsed on the host
sim_insts                                    64016613                       # Number of instructions simulated
sim_ops                                      64016613                       # Number of ops (including micro ops) simulated
system.voltage_domain.voltage                       1                       # Voltage in Volts
system.clk_domain.clock                          1000                       # Clock period in ticks
system.mem_ctrls.bytes_read::cpu00.inst        128704                       # Number of bytes read from this memory
system.mem_ctrls.bytes_read::cpu00.data        873536                       # Number of bytes read from this memory
system.mem_ctrls.bytes_read::cpu01.inst         12608                       # Number of bytes read from this memory
system.mem_ctrls.bytes_read::cpu01.data        591488                       # Number of bytes read from this memory
system.mem_ctrls.bytes_read::cpu02.inst          1280                       # Number of bytes read from this memory
system.mem_ctrls.bytes_read::cpu02.data        627648                       # Number of bytes read from this memory
system.mem_ctrls.bytes_read::cpu03.inst           128                       # Number of bytes read from this memory
system.mem_ctrls.bytes_read::cpu03.data        555648                       # Number of bytes read from this memory
system.mem_ctrls.bytes_read::cpu04.inst           128                       # Number of bytes read from this memory
system.mem_ctrls.bytes_read::cpu04.data        573952                       # Number of bytes read from this memory
system.mem_ctrls.bytes_read::cpu05.inst            64                       # Number of bytes read from this memory
system.mem_ctrls.bytes_read::cpu05.data        546752                       # Number of bytes read from this memory
system.mem_ctrls.bytes_read::cpu06.inst           256                       # Number of bytes read from this memory
system.mem_ctrls.bytes_read::cpu06.data        566400                       # Number of bytes read from this memory
system.mem_ctrls.bytes_read::cpu07.inst           192                       # Number of bytes read from this memory
system.mem_ctrls.bytes_read::cpu07.data        526976                       # Number of bytes read from this memory
system.mem_ctrls.bytes_read::cpu08.data        577088                       # Number of bytes read from this memory
system.mem_ctrls.bytes_read::cpu09.inst           128                       # Number of bytes read from this memory
system.mem_ctrls.bytes_read::cpu09.data        540288                       # Number of bytes read from this memory
system.mem_ctrls.bytes_read::cpu10.inst           128                       # Number of bytes read from this memory
system.mem_ctrls.bytes_read::cpu10.data        547072                       # Number of bytes read from this memory
system.mem_ctrls.bytes_read::cpu11.data        538944                       # Number of bytes read from this memory
system.mem_ctrls.bytes_read::cpu12.inst          1216                       # Number of bytes read from this memory
system.mem_ctrls.bytes_read::cpu12.data        577536                       # Number of bytes read from this memory
system.mem_ctrls.bytes_read::cpu13.inst           320                       # Number of bytes read from this memory
system.mem_ctrls.bytes_read::cpu13.data        522688                       # Number of bytes read from this memory
system.mem_ctrls.bytes_read::cpu14.inst           448                       # Number of bytes read from this memory
system.mem_ctrls.bytes_read::cpu14.data        548992                       # Number of bytes read from this memory
system.mem_ctrls.bytes_read::cpu15.inst           896                       # Number of bytes read from this memory
system.mem_ctrls.bytes_read::cpu15.data        557632                       # Number of bytes read from this memory
system.mem_ctrls.bytes_read::total            9419136                       # Number of bytes read from this memory
system.mem_ctrls.bytes_inst_read::cpu00.inst       128704                       # Number of instructions bytes read from this memory
system.mem_ctrls.bytes_inst_read::cpu01.inst        12608                       # Number of instructions bytes read from this memory
system.mem_ctrls.bytes_inst_read::cpu02.inst         1280                       # Number of instructions bytes read from this memory
system.mem_ctrls.bytes_inst_read::cpu03.inst          128                       # Number of instructions bytes read from this memory
system.mem_ctrls.bytes_inst_read::cpu04.inst          128                       # Number of instructions bytes read from this memory
system.mem_ctrls.bytes_inst_read::cpu05.inst           64                       # Number of instructions bytes read from this memory
system.mem_ctrls.bytes_inst_read::cpu06.inst          256                       # Number of instructions bytes read from this memory
system.mem_ctrls.bytes_inst_read::cpu07.inst          192                       # Number of instructions bytes read from this memory
system.mem_ctrls.bytes_inst_read::cpu09.inst          128                       # Number of instructions bytes read from this memory
system.mem_ctrls.bytes_inst_read::cpu10.inst          128                       # Number of instructions bytes read from this memory
system.mem_ctrls.bytes_inst_read::cpu12.inst         1216                       # Number of instructions bytes read from this memory
system.mem_ctrls.bytes_inst_read::cpu13.inst          320                       # Number of instructions bytes read from this memory
system.mem_ctrls.bytes_inst_read::cpu14.inst          448                       # Number of instructions bytes read from this memory
system.mem_ctrls.bytes_inst_read::cpu15.inst          896                       # Number of instructions bytes read from this memory
system.mem_ctrls.bytes_inst_read::total        146496                       # Number of instructions bytes read from this memory
system.mem_ctrls.bytes_written::writebacks      5881536                       # Number of bytes written to this memory
system.mem_ctrls.bytes_written::total         5881536                       # Number of bytes written to this memory
system.mem_ctrls.num_reads::cpu00.inst           2011                       # Number of read requests responded to by this memory
system.mem_ctrls.num_reads::cpu00.data          13649                       # Number of read requests responded to by this memory
system.mem_ctrls.num_reads::cpu01.inst            197                       # Number of read requests responded to by this memory
system.mem_ctrls.num_reads::cpu01.data           9242                       # Number of read requests responded to by this memory
system.mem_ctrls.num_reads::cpu02.inst             20                       # Number of read requests responded to by this memory
system.mem_ctrls.num_reads::cpu02.data           9807                       # Number of read requests responded to by this memory
system.mem_ctrls.num_reads::cpu03.inst              2                       # Number of read requests responded to by this memory
system.mem_ctrls.num_reads::cpu03.data           8682                       # Number of read requests responded to by this memory
system.mem_ctrls.num_reads::cpu04.inst              2                       # Number of read requests responded to by this memory
system.mem_ctrls.num_reads::cpu04.data           8968                       # Number of read requests responded to by this memory
system.mem_ctrls.num_reads::cpu05.inst              1                       # Number of read requests responded to by this memory
system.mem_ctrls.num_reads::cpu05.data           8543                       # Number of read requests responded to by this memory
system.mem_ctrls.num_reads::cpu06.inst              4                       # Number of read requests responded to by this memory
system.mem_ctrls.num_reads::cpu06.data           8850                       # Number of read requests responded to by this memory
system.mem_ctrls.num_reads::cpu07.inst              3                       # Number of read requests responded to by this memory
system.mem_ctrls.num_reads::cpu07.data           8234                       # Number of read requests responded to by this memory
system.mem_ctrls.num_reads::cpu08.data           9017                       # Number of read requests responded to by this memory
system.mem_ctrls.num_reads::cpu09.inst              2                       # Number of read requests responded to by this memory
system.mem_ctrls.num_reads::cpu09.data           8442                       # Number of read requests responded to by this memory
system.mem_ctrls.num_reads::cpu10.inst              2                       # Number of read requests responded to by this memory
system.mem_ctrls.num_reads::cpu10.data           8548                       # Number of read requests responded to by this memory
system.mem_ctrls.num_reads::cpu11.data           8421                       # Number of read requests responded to by this memory
system.mem_ctrls.num_reads::cpu12.inst             19                       # Number of read requests responded to by this memory
system.mem_ctrls.num_reads::cpu12.data           9024                       # Number of read requests responded to by this memory
system.mem_ctrls.num_reads::cpu13.inst              5                       # Number of read requests responded to by this memory
system.mem_ctrls.num_reads::cpu13.data           8167                       # Number of read requests responded to by this memory
system.mem_ctrls.num_reads::cpu14.inst              7                       # Number of read requests responded to by this memory
system.mem_ctrls.num_reads::cpu14.data           8578                       # Number of read requests responded to by this memory
system.mem_ctrls.num_reads::cpu15.inst             14                       # Number of read requests responded to by this memory
system.mem_ctrls.num_reads::cpu15.data           8713                       # Number of read requests responded to by this memory
system.mem_ctrls.num_reads::total              147174                       # Number of read requests responded to by this memory
system.mem_ctrls.num_writes::writebacks         91899                       # Number of write requests responded to by this memory
system.mem_ctrls.num_writes::total              91899                       # Number of write requests responded to by this memory
system.mem_ctrls.bw_read::cpu00.inst         12569467                       # Total read bandwidth from this memory (bytes/s)
system.mem_ctrls.bw_read::cpu00.data         85311113                       # Total read bandwidth from this memory (bytes/s)
system.mem_ctrls.bw_read::cpu01.inst          1231320                       # Total read bandwidth from this memory (bytes/s)
system.mem_ctrls.bw_read::cpu01.data         57765793                       # Total read bandwidth from this memory (bytes/s)
system.mem_ctrls.bw_read::cpu02.inst           125007                       # Total read bandwidth from this memory (bytes/s)
system.mem_ctrls.bw_read::cpu02.data         61297244                       # Total read bandwidth from this memory (bytes/s)
system.mem_ctrls.bw_read::cpu03.inst            12501                       # Total read bandwidth from this memory (bytes/s)
system.mem_ctrls.bw_read::cpu03.data         54265593                       # Total read bandwidth from this memory (bytes/s)
system.mem_ctrls.bw_read::cpu04.inst            12501                       # Total read bandwidth from this memory (bytes/s)
system.mem_ctrls.bw_read::cpu04.data         56053195                       # Total read bandwidth from this memory (bytes/s)
system.mem_ctrls.bw_read::cpu05.inst             6250                       # Total read bandwidth from this memory (bytes/s)
system.mem_ctrls.bw_read::cpu05.data         53396794                       # Total read bandwidth from this memory (bytes/s)
system.mem_ctrls.bw_read::cpu06.inst            25001                       # Total read bandwidth from this memory (bytes/s)
system.mem_ctrls.bw_read::cpu06.data         55315653                       # Total read bandwidth from this memory (bytes/s)
system.mem_ctrls.bw_read::cpu07.inst            18751                       # Total read bandwidth from this memory (bytes/s)
system.mem_ctrls.bw_read::cpu07.data         51465434                       # Total read bandwidth from this memory (bytes/s)
system.mem_ctrls.bw_read::cpu08.data         56359463                       # Total read bandwidth from this memory (bytes/s)
system.mem_ctrls.bw_read::cpu09.inst            12501                       # Total read bandwidth from this memory (bytes/s)
system.mem_ctrls.bw_read::cpu09.data         52765508                       # Total read bandwidth from this memory (bytes/s)
system.mem_ctrls.bw_read::cpu10.inst            12501                       # Total read bandwidth from this memory (bytes/s)
system.mem_ctrls.bw_read::cpu10.data         53428046                       # Total read bandwidth from this memory (bytes/s)
system.mem_ctrls.bw_read::cpu11.data         52634250                       # Total read bandwidth from this memory (bytes/s)
system.mem_ctrls.bw_read::cpu12.inst           118757                       # Total read bandwidth from this memory (bytes/s)
system.mem_ctrls.bw_read::cpu12.data         56403215                       # Total read bandwidth from this memory (bytes/s)
system.mem_ctrls.bw_read::cpu13.inst            31252                       # Total read bandwidth from this memory (bytes/s)
system.mem_ctrls.bw_read::cpu13.data         51046660                       # Total read bandwidth from this memory (bytes/s)
system.mem_ctrls.bw_read::cpu14.inst            43752                       # Total read bandwidth from this memory (bytes/s)
system.mem_ctrls.bw_read::cpu14.data         53615556                       # Total read bandwidth from this memory (bytes/s)
system.mem_ctrls.bw_read::cpu15.inst            87505                       # Total read bandwidth from this memory (bytes/s)
system.mem_ctrls.bw_read::cpu15.data         54459354                       # Total read bandwidth from this memory (bytes/s)
system.mem_ctrls.bw_read::total             919889937                       # Total read bandwidth from this memory (bytes/s)
system.mem_ctrls.bw_inst_read::cpu00.inst     12569467                       # Instruction read bandwidth from this memory (bytes/s)
system.mem_ctrls.bw_inst_read::cpu01.inst      1231320                       # Instruction read bandwidth from this memory (bytes/s)
system.mem_ctrls.bw_inst_read::cpu02.inst       125007                       # Instruction read bandwidth from this memory (bytes/s)
system.mem_ctrls.bw_inst_read::cpu03.inst        12501                       # Instruction read bandwidth from this memory (bytes/s)
system.mem_ctrls.bw_inst_read::cpu04.inst        12501                       # Instruction read bandwidth from this memory (bytes/s)
system.mem_ctrls.bw_inst_read::cpu05.inst         6250                       # Instruction read bandwidth from this memory (bytes/s)
system.mem_ctrls.bw_inst_read::cpu06.inst        25001                       # Instruction read bandwidth from this memory (bytes/s)
system.mem_ctrls.bw_inst_read::cpu07.inst        18751                       # Instruction read bandwidth from this memory (bytes/s)
system.mem_ctrls.bw_inst_read::cpu09.inst        12501                       # Instruction read bandwidth from this memory (bytes/s)
system.mem_ctrls.bw_inst_read::cpu10.inst        12501                       # Instruction read bandwidth from this memory (bytes/s)
system.mem_ctrls.bw_inst_read::cpu12.inst       118757                       # Instruction read bandwidth from this memory (bytes/s)
system.mem_ctrls.bw_inst_read::cpu13.inst        31252                       # Instruction read bandwidth from this memory (bytes/s)
system.mem_ctrls.bw_inst_read::cpu14.inst        43752                       # Instruction read bandwidth from this memory (bytes/s)
system.mem_ctrls.bw_inst_read::cpu15.inst        87505                       # Instruction read bandwidth from this memory (bytes/s)
system.mem_ctrls.bw_inst_read::total         14307066                       # Instruction read bandwidth from this memory (bytes/s)
system.mem_ctrls.bw_write::writebacks       574401493                       # Write bandwidth from this memory (bytes/s)
system.mem_ctrls.bw_write::total            574401493                       # Write bandwidth from this memory (bytes/s)
system.mem_ctrls.bw_total::writebacks       574401493                       # Total bandwidth to/from this memory (bytes/s)
system.mem_ctrls.bw_total::cpu00.inst        12569467                       # Total bandwidth to/from this memory (bytes/s)
system.mem_ctrls.bw_total::cpu00.data        85311113                       # Total bandwidth to/from this memory (bytes/s)
system.mem_ctrls.bw_total::cpu01.inst         1231320                       # Total bandwidth to/from this memory (bytes/s)
system.mem_ctrls.bw_total::cpu01.data        57765793                       # Total bandwidth to/from this memory (bytes/s)
system.mem_ctrls.bw_total::cpu02.inst          125007                       # Total bandwidth to/from this memory (bytes/s)
system.mem_ctrls.bw_total::cpu02.data        61297244                       # Total bandwidth to/from this memory (bytes/s)
system.mem_ctrls.bw_total::cpu03.inst           12501                       # Total bandwidth to/from this memory (bytes/s)
system.mem_ctrls.bw_total::cpu03.data        54265593                       # Total bandwidth to/from this memory (bytes/s)
system.mem_ctrls.bw_total::cpu04.inst           12501                       # Total bandwidth to/from this memory (bytes/s)
system.mem_ctrls.bw_total::cpu04.data        56053195                       # Total bandwidth to/from this memory (bytes/s)
system.mem_ctrls.bw_total::cpu05.inst            6250                       # Total bandwidth to/from this memory (bytes/s)
system.mem_ctrls.bw_total::cpu05.data        53396794                       # Total bandwidth to/from this memory (bytes/s)
system.mem_ctrls.bw_total::cpu06.inst           25001                       # Total bandwidth to/from this memory (bytes/s)
system.mem_ctrls.bw_total::cpu06.data        55315653                       # Total bandwidth to/from this memory (bytes/s)
system.mem_ctrls.bw_total::cpu07.inst           18751                       # Total bandwidth to/from this memory (bytes/s)
system.mem_ctrls.bw_total::cpu07.data        51465434                       # Total bandwidth to/from this memory (bytes/s)
system.mem_ctrls.bw_total::cpu08.data        56359463                       # Total bandwidth to/from this memory (bytes/s)
system.mem_ctrls.bw_total::cpu09.inst           12501                       # Total bandwidth to/from this memory (bytes/s)
system.mem_ctrls.bw_total::cpu09.data        52765508                       # Total bandwidth to/from this memory (bytes/s)
system.mem_ctrls.bw_total::cpu10.inst           12501                       # Total bandwidth to/from this memory (bytes/s)
system.mem_ctrls.bw_total::cpu10.data        53428046                       # Total bandwidth to/from this memory (bytes/s)
system.mem_ctrls.bw_total::cpu11.data        52634250                       # Total bandwidth to/from this memory (bytes/s)
system.mem_ctrls.bw_total::cpu12.inst          118757                       # Total bandwidth to/from this memory (bytes/s)
system.mem_ctrls.bw_total::cpu12.data        56403215                       # Total bandwidth to/from this memory (bytes/s)
system.mem_ctrls.bw_total::cpu13.inst           31252                       # Total bandwidth to/from this memory (bytes/s)
system.mem_ctrls.bw_total::cpu13.data        51046660                       # Total bandwidth to/from this memory (bytes/s)
system.mem_ctrls.bw_total::cpu14.inst           43752                       # Total bandwidth to/from this memory (bytes/s)
system.mem_ctrls.bw_total::cpu14.data        53615556                       # Total bandwidth to/from this memory (bytes/s)
system.mem_ctrls.bw_total::cpu15.inst           87505                       # Total bandwidth to/from this memory (bytes/s)
system.mem_ctrls.bw_total::cpu15.data        54459354                       # Total bandwidth to/from this memory (bytes/s)
system.mem_ctrls.bw_total::total           1494291430                       # Total bandwidth to/from this memory (bytes/s)
system.cpu00.branchPred.lookups                332809                       # Number of BP lookups
system.cpu00.branchPred.condPredicted          167545                       # Number of conditional branches predicted
system.cpu00.branchPred.condIncorrect            5334                       # Number of conditional branches incorrect
system.cpu00.branchPred.BTBLookups             233730                       # Number of BTB lookups
system.cpu00.branchPred.BTBHits                210809                       # Number of BTB hits
system.cpu00.branchPred.BTBCorrect                  0                       # Number of correct BTB predictions (this stat may not work properly.
system.cpu00.branchPred.BTBHitPct           90.193386                       # BTB Hit Percentage
system.cpu00.branchPred.usedRAS                 79727                       # Number of times the RAS was used to get a target.
system.cpu00.branchPred.RASInCorrect               86                       # Number of incorrect RAS predictions.
system.cpu00.branchPred.indirectLookups          1702                       # Number of indirect predictor lookups.
system.cpu00.branchPred.indirectHits              992                       # Number of indirect target hits.
system.cpu00.branchPred.indirectMisses            710                       # Number of indirect misses.
system.cpu00.branchPredindirectMispredicted          231                       # Number of mispredicted indirect branches.
system.cpu_voltage_domain.voltage                   1                       # Voltage in Volts
system.cpu_clk_domain.clock                      1161                       # Clock period in ticks
system.cpu00.dtb.fetch_hits                         0                       # ITB hits
system.cpu00.dtb.fetch_misses                       0                       # ITB misses
system.cpu00.dtb.fetch_acv                          0                       # ITB acv
system.cpu00.dtb.fetch_accesses                     0                       # ITB accesses
system.cpu00.dtb.read_hits                    1178554                       # DTB read hits
system.cpu00.dtb.read_misses                     7878                       # DTB read misses
system.cpu00.dtb.read_acv                           2                       # DTB read access violations
system.cpu00.dtb.read_accesses                1186432                       # DTB read accesses
system.cpu00.dtb.write_hits                    355378                       # DTB write hits
system.cpu00.dtb.write_misses                   60085                       # DTB write misses
system.cpu00.dtb.write_acv                          0                       # DTB write access violations
system.cpu00.dtb.write_accesses                415463                       # DTB write accesses
system.cpu00.dtb.data_hits                    1533932                       # DTB hits
system.cpu00.dtb.data_misses                    67963                       # DTB misses
system.cpu00.dtb.data_acv                           2                       # DTB access violations
system.cpu00.dtb.data_accesses                1601895                       # DTB accesses
system.cpu00.itb.fetch_hits                    767619                       # ITB hits
system.cpu00.itb.fetch_misses                     160                       # ITB misses
system.cpu00.itb.fetch_acv                          0                       # ITB acv
system.cpu00.itb.fetch_accesses                767779                       # ITB accesses
system.cpu00.itb.read_hits                          0                       # DTB read hits
system.cpu00.itb.read_misses                        0                       # DTB read misses
system.cpu00.itb.read_acv                           0                       # DTB read access violations
system.cpu00.itb.read_accesses                      0                       # DTB read accesses
system.cpu00.itb.write_hits                         0                       # DTB write hits
system.cpu00.itb.write_misses                       0                       # DTB write misses
system.cpu00.itb.write_acv                          0                       # DTB write access violations
system.cpu00.itb.write_accesses                     0                       # DTB write accesses
system.cpu00.itb.data_hits                          0                       # DTB hits
system.cpu00.itb.data_misses                        0                       # DTB misses
system.cpu00.itb.data_acv                           0                       # DTB access violations
system.cpu00.itb.data_accesses                      0                       # DTB accesses
system.cpu00.workload.num_syscalls               1711                       # Number of system calls
system.cpu00.numCycles                        8513670                       # number of cpu cycles simulated
system.cpu00.numWorkItemsStarted                    0                       # number of work items this cpu started
system.cpu00.numWorkItemsCompleted                  0                       # number of work items this cpu completed
system.cpu00.fetch.icacheStallCycles            96348                       # Number of cycles fetch is stalled on an Icache miss
system.cpu00.fetch.Insts                      7376419                       # Number of instructions fetch has processed
system.cpu00.fetch.Branches                    332809                       # Number of branches that fetch encountered
system.cpu00.fetch.predictedBranches           291528                       # Number of branches that fetch has predicted taken
system.cpu00.fetch.Cycles                     8168598                       # Number of cycles fetch has run and was not squashing or blocked
system.cpu00.fetch.SquashCycles                 48518                       # Number of cycles fetch has spent squashing
system.cpu00.fetch.MiscStallCycles                114                       # Number of cycles fetch has spent waiting on interrupts, or bad addresses, or out of MSHRs
system.cpu00.fetch.PendingTrapStallCycles         7034                       # Number of stall cycles due to pending traps
system.cpu00.fetch.IcacheWaitRetryStallCycles           70                       # Number of stall cycles due to full MSHR
system.cpu00.fetch.CacheLines                  767619                       # Number of cache lines fetched
system.cpu00.fetch.IcacheSquashes                2616                       # Number of outstanding Icache misses that were squashed
system.cpu00.fetch.rateDist::samples          8296423                       # Number of instructions fetched each cycle (Total)
system.cpu00.fetch.rateDist::mean            0.889108                       # Number of instructions fetched each cycle (Total)
system.cpu00.fetch.rateDist::stdev           2.248037                       # Number of instructions fetched each cycle (Total)
system.cpu00.fetch.rateDist::underflows             0      0.00%      0.00% # Number of instructions fetched each cycle (Total)
system.cpu00.fetch.rateDist::0                6944631     83.71%     83.71% # Number of instructions fetched each cycle (Total)
system.cpu00.fetch.rateDist::1                  35312      0.43%     84.13% # Number of instructions fetched each cycle (Total)
system.cpu00.fetch.rateDist::2                 258666      3.12%     87.25% # Number of instructions fetched each cycle (Total)
system.cpu00.fetch.rateDist::3                  29264      0.35%     87.60% # Number of instructions fetched each cycle (Total)
system.cpu00.fetch.rateDist::4                 269907      3.25%     90.86% # Number of instructions fetched each cycle (Total)
system.cpu00.fetch.rateDist::5                  48987      0.59%     91.45% # Number of instructions fetched each cycle (Total)
system.cpu00.fetch.rateDist::6                  89360      1.08%     92.52% # Number of instructions fetched each cycle (Total)
system.cpu00.fetch.rateDist::7                  87108      1.05%     93.57% # Number of instructions fetched each cycle (Total)
system.cpu00.fetch.rateDist::8                 533188      6.43%    100.00% # Number of instructions fetched each cycle (Total)
system.cpu00.fetch.rateDist::overflows              0      0.00%    100.00% # Number of instructions fetched each cycle (Total)
system.cpu00.fetch.rateDist::min_value              0                       # Number of instructions fetched each cycle (Total)
system.cpu00.fetch.rateDist::max_value              8                       # Number of instructions fetched each cycle (Total)
system.cpu00.fetch.rateDist::total            8296423                       # Number of instructions fetched each cycle (Total)
system.cpu00.fetch.branchRate                0.039091                       # Number of branch fetches per cycle
system.cpu00.fetch.rate                      0.866421                       # Number of inst fetches per cycle
system.cpu00.decode.IdleCycles                 263536                       # Number of cycles decode is idle
system.cpu00.decode.BlockedCycles             7168801                       # Number of cycles decode is blocked
system.cpu00.decode.RunCycles                  333916                       # Number of cycles decode is running
system.cpu00.decode.UnblockCycles              507551                       # Number of cycles decode is unblocking
system.cpu00.decode.SquashCycles                22619                       # Number of cycles decode is squashing
system.cpu00.decode.BranchResolved              81606                       # Number of times decode resolved a branch
system.cpu00.decode.BranchMispred                1682                       # Number of times decode detected a branch misprediction
system.cpu00.decode.DecodedInsts              6492390                       # Number of instructions handled by decode
system.cpu00.decode.SquashedInsts                6964                       # Number of squashed instructions handled by decode
system.cpu00.rename.SquashCycles                22619                       # Number of cycles rename is squashing
system.cpu00.rename.IdleCycles                 385959                       # Number of cycles rename is idle
system.cpu00.rename.BlockCycles               3076412                       # Number of cycles rename is blocking
system.cpu00.rename.serializeStallCycles        95279                       # count of cycles rename stalled for serializing inst
system.cpu00.rename.RunCycles                  641025                       # Number of cycles rename is running
system.cpu00.rename.UnblockCycles             4075129                       # Number of cycles rename is unblocking
system.cpu00.rename.RenamedInsts              6326129                       # Number of instructions processed by rename
system.cpu00.rename.ROBFullEvents                2675                       # Number of times rename has blocked due to ROB full
system.cpu00.rename.IQFullEvents              2085067                       # Number of times rename has blocked due to IQ full
system.cpu00.rename.LQFullEvents              1672404                       # Number of times rename has blocked due to LQ full
system.cpu00.rename.SQFullEvents               281239                       # Number of times rename has blocked due to SQ full
system.cpu00.rename.RenamedOperands           5427434                       # Number of destination operands rename has renamed
system.cpu00.rename.RenameLookups             9150096                       # Number of register rename lookups that rename has made
system.cpu00.rename.int_rename_lookups        5131852                       # Number of integer rename lookups
system.cpu00.rename.fp_rename_lookups         4017992                       # Number of floating rename lookups
system.cpu00.rename.CommittedMaps             3930803                       # Number of HB maps that are committed
system.cpu00.rename.UndoneMaps                1496631                       # Number of HB maps that are undone due to squashing
system.cpu00.rename.serializingInsts             2314                       # count of serializing insts renamed
system.cpu00.rename.tempSerializingInsts         1972                       # count of temporary serializing insts renamed
system.cpu00.rename.skidInsts                 3384929                       # count of insts added to the skid buffer
system.cpu00.memDep0.insertedLoads            1198134                       # Number of loads inserted to the mem dependence unit.
system.cpu00.memDep0.insertedStores            532649                       # Number of stores inserted to the mem dependence unit.
system.cpu00.memDep0.conflictingLoads          371369                       # Number of conflicting loads.
system.cpu00.memDep0.conflictingStores         201593                       # Number of conflicting stores.
system.cpu00.iq.iqInstsAdded                  6223189                       # Number of instructions added to the IQ (excludes non-spec)
system.cpu00.iq.iqNonSpecInstsAdded              3202                       # Number of non-speculative instructions added to the IQ
system.cpu00.iq.iqInstsIssued                 5931353                       # Number of instructions issued
system.cpu00.iq.iqSquashedInstsIssued            6717                       # Number of squashed instructions issued
system.cpu00.iq.iqSquashedInstsExamined       1880953                       # Number of squashed instructions iterated over during squash; mainly for profiling
system.cpu00.iq.iqSquashedOperandsExamined       772450                       # Number of squashed operands that are examined and possibly removed from graph
system.cpu00.iq.iqSquashedNonSpecRemoved          498                       # Number of squashed non-spec instructions that were removed
system.cpu00.iq.issued_per_cycle::samples      8296423                       # Number of insts issued each cycle
system.cpu00.iq.issued_per_cycle::mean       0.714929                       # Number of insts issued each cycle
system.cpu00.iq.issued_per_cycle::stdev      1.206451                       # Number of insts issued each cycle
system.cpu00.iq.issued_per_cycle::underflows            0      0.00%      0.00% # Number of insts issued each cycle
system.cpu00.iq.issued_per_cycle::0           4817216     58.06%     58.06% # Number of insts issued each cycle
system.cpu00.iq.issued_per_cycle::1           2249919     27.12%     85.18% # Number of insts issued each cycle
system.cpu00.iq.issued_per_cycle::2            715327      8.62%     93.81% # Number of insts issued each cycle
system.cpu00.iq.issued_per_cycle::3            218325      2.63%     96.44% # Number of insts issued each cycle
system.cpu00.iq.issued_per_cycle::4            115256      1.39%     97.83% # Number of insts issued each cycle
system.cpu00.iq.issued_per_cycle::5             64680      0.78%     98.61% # Number of insts issued each cycle
system.cpu00.iq.issued_per_cycle::6             43687      0.53%     99.13% # Number of insts issued each cycle
system.cpu00.iq.issued_per_cycle::7             26845      0.32%     99.46% # Number of insts issued each cycle
system.cpu00.iq.issued_per_cycle::8             45168      0.54%    100.00% # Number of insts issued each cycle
system.cpu00.iq.issued_per_cycle::overflows            0      0.00%    100.00% # Number of insts issued each cycle
system.cpu00.iq.issued_per_cycle::min_value            0                       # Number of insts issued each cycle
system.cpu00.iq.issued_per_cycle::max_value            8                       # Number of insts issued each cycle
system.cpu00.iq.issued_per_cycle::total       8296423                       # Number of insts issued each cycle
system.cpu00.iq.fu_full::No_OpClass                 0      0.00%      0.00% # attempts to use FU when none available
system.cpu00.iq.fu_full::IntAlu                  4234      9.56%      9.56% # attempts to use FU when none available
system.cpu00.iq.fu_full::IntMult                    0      0.00%      9.56% # attempts to use FU when none available
system.cpu00.iq.fu_full::IntDiv                     0      0.00%      9.56% # attempts to use FU when none available
system.cpu00.iq.fu_full::FloatAdd                   0      0.00%      9.56% # attempts to use FU when none available
system.cpu00.iq.fu_full::FloatCmp                   0      0.00%      9.56% # attempts to use FU when none available
system.cpu00.iq.fu_full::FloatCvt                   0      0.00%      9.56% # attempts to use FU when none available
system.cpu00.iq.fu_full::FloatMult               8237     18.60%     28.16% # attempts to use FU when none available
system.cpu00.iq.fu_full::FloatDiv                   0      0.00%     28.16% # attempts to use FU when none available
system.cpu00.iq.fu_full::FloatSqrt                  0      0.00%     28.16% # attempts to use FU when none available
system.cpu00.iq.fu_full::SimdAdd                    0      0.00%     28.16% # attempts to use FU when none available
system.cpu00.iq.fu_full::SimdAddAcc                 0      0.00%     28.16% # attempts to use FU when none available
system.cpu00.iq.fu_full::SimdAlu                    0      0.00%     28.16% # attempts to use FU when none available
system.cpu00.iq.fu_full::SimdCmp                    0      0.00%     28.16% # attempts to use FU when none available
system.cpu00.iq.fu_full::SimdCvt                    0      0.00%     28.16% # attempts to use FU when none available
system.cpu00.iq.fu_full::SimdMisc                   0      0.00%     28.16% # attempts to use FU when none available
system.cpu00.iq.fu_full::SimdMult                   0      0.00%     28.16% # attempts to use FU when none available
system.cpu00.iq.fu_full::SimdMultAcc                0      0.00%     28.16% # attempts to use FU when none available
system.cpu00.iq.fu_full::SimdShift                  0      0.00%     28.16% # attempts to use FU when none available
system.cpu00.iq.fu_full::SimdShiftAcc               0      0.00%     28.16% # attempts to use FU when none available
system.cpu00.iq.fu_full::SimdSqrt                   0      0.00%     28.16% # attempts to use FU when none available
system.cpu00.iq.fu_full::SimdFloatAdd               0      0.00%     28.16% # attempts to use FU when none available
system.cpu00.iq.fu_full::SimdFloatAlu               0      0.00%     28.16% # attempts to use FU when none available
system.cpu00.iq.fu_full::SimdFloatCmp               0      0.00%     28.16% # attempts to use FU when none available
system.cpu00.iq.fu_full::SimdFloatCvt               0      0.00%     28.16% # attempts to use FU when none available
system.cpu00.iq.fu_full::SimdFloatDiv               0      0.00%     28.16% # attempts to use FU when none available
system.cpu00.iq.fu_full::SimdFloatMisc              0      0.00%     28.16% # attempts to use FU when none available
system.cpu00.iq.fu_full::SimdFloatMult              0      0.00%     28.16% # attempts to use FU when none available
system.cpu00.iq.fu_full::SimdFloatMultAcc            0      0.00%     28.16% # attempts to use FU when none available
system.cpu00.iq.fu_full::SimdFloatSqrt              0      0.00%     28.16% # attempts to use FU when none available
system.cpu00.iq.fu_full::MemRead                24729     55.84%     84.01% # attempts to use FU when none available
system.cpu00.iq.fu_full::MemWrite                7082     15.99%    100.00% # attempts to use FU when none available
system.cpu00.iq.fu_full::IprAccess                  0      0.00%    100.00% # attempts to use FU when none available
system.cpu00.iq.fu_full::InstPrefetch               0      0.00%    100.00% # attempts to use FU when none available
system.cpu00.iq.FU_type_0::No_OpClass               0      0.00%      0.00% # Type of FU issued
system.cpu00.iq.FU_type_0::IntAlu             1756407     29.61%     29.61% # Type of FU issued
system.cpu00.iq.FU_type_0::IntMult                251      0.00%     29.62% # Type of FU issued
system.cpu00.iq.FU_type_0::IntDiv                   0      0.00%     29.62% # Type of FU issued
system.cpu00.iq.FU_type_0::FloatAdd           1713562     28.89%     58.51% # Type of FU issued
system.cpu00.iq.FU_type_0::FloatCmp                11      0.00%     58.51% # Type of FU issued
system.cpu00.iq.FU_type_0::FloatCvt                 0      0.00%     58.51% # Type of FU issued
system.cpu00.iq.FU_type_0::FloatMult           852373     14.37%     72.88% # Type of FU issued
system.cpu00.iq.FU_type_0::FloatDiv                 0      0.00%     72.88% # Type of FU issued
system.cpu00.iq.FU_type_0::FloatSqrt                0      0.00%     72.88% # Type of FU issued
system.cpu00.iq.FU_type_0::SimdAdd                  0      0.00%     72.88% # Type of FU issued
system.cpu00.iq.FU_type_0::SimdAddAcc               0      0.00%     72.88% # Type of FU issued
system.cpu00.iq.FU_type_0::SimdAlu                  0      0.00%     72.88% # Type of FU issued
system.cpu00.iq.FU_type_0::SimdCmp                  0      0.00%     72.88% # Type of FU issued
system.cpu00.iq.FU_type_0::SimdCvt                  0      0.00%     72.88% # Type of FU issued
system.cpu00.iq.FU_type_0::SimdMisc                 0      0.00%     72.88% # Type of FU issued
system.cpu00.iq.FU_type_0::SimdMult                 0      0.00%     72.88% # Type of FU issued
system.cpu00.iq.FU_type_0::SimdMultAcc              0      0.00%     72.88% # Type of FU issued
system.cpu00.iq.FU_type_0::SimdShift                0      0.00%     72.88% # Type of FU issued
system.cpu00.iq.FU_type_0::SimdShiftAcc             0      0.00%     72.88% # Type of FU issued
system.cpu00.iq.FU_type_0::SimdSqrt                 0      0.00%     72.88% # Type of FU issued
system.cpu00.iq.FU_type_0::SimdFloatAdd             0      0.00%     72.88% # Type of FU issued
system.cpu00.iq.FU_type_0::SimdFloatAlu             0      0.00%     72.88% # Type of FU issued
system.cpu00.iq.FU_type_0::SimdFloatCmp             0      0.00%     72.88% # Type of FU issued
system.cpu00.iq.FU_type_0::SimdFloatCvt             0      0.00%     72.88% # Type of FU issued
system.cpu00.iq.FU_type_0::SimdFloatDiv             0      0.00%     72.88% # Type of FU issued
system.cpu00.iq.FU_type_0::SimdFloatMisc            0      0.00%     72.88% # Type of FU issued
system.cpu00.iq.FU_type_0::SimdFloatMult            0      0.00%     72.88% # Type of FU issued
system.cpu00.iq.FU_type_0::SimdFloatMultAcc            0      0.00%     72.88% # Type of FU issued
system.cpu00.iq.FU_type_0::SimdFloatSqrt            0      0.00%     72.88% # Type of FU issued
system.cpu00.iq.FU_type_0::MemRead            1191078     20.08%     92.96% # Type of FU issued
system.cpu00.iq.FU_type_0::MemWrite            417671      7.04%    100.00% # Type of FU issued
system.cpu00.iq.FU_type_0::IprAccess                0      0.00%    100.00% # Type of FU issued
system.cpu00.iq.FU_type_0::InstPrefetch             0      0.00%    100.00% # Type of FU issued
system.cpu00.iq.FU_type_0::total              5931353                       # Type of FU issued
system.cpu00.iq.rate                         0.696686                       # Inst issue rate
system.cpu00.iq.fu_busy_cnt                     44282                       # FU busy when requested
system.cpu00.iq.fu_busy_rate                 0.007466                       # FU busy rate (busy events/executed inst)
system.cpu00.iq.int_inst_queue_reads         14478395                       # Number of integer instruction queue reads
system.cpu00.iq.int_inst_queue_writes         5243882                       # Number of integer instruction queue writes
system.cpu00.iq.int_inst_queue_wakeup_accesses      2877365                       # Number of integer instruction queue wakeup accesses
system.cpu00.iq.fp_inst_queue_reads           5731733                       # Number of floating instruction queue reads
system.cpu00.iq.fp_inst_queue_writes          2863970                       # Number of floating instruction queue writes
system.cpu00.iq.fp_inst_queue_wakeup_accesses      2861623                       # Number of floating instruction queue wakeup accesses
system.cpu00.iq.int_alu_accesses              3105607                       # Number of integer alu accesses
system.cpu00.iq.fp_alu_accesses               2870028                       # Number of floating point alu accesses
system.cpu00.iew.lsq.thread0.forwLoads           9654                       # Number of loads that had data forwarded from stores
system.cpu00.iew.lsq.thread0.invAddrLoads            0                       # Number of loads ignored due to an invalid address
system.cpu00.iew.lsq.thread0.squashedLoads       595421                       # Number of loads squashed
system.cpu00.iew.lsq.thread0.ignoredResponses           52                       # Number of memory responses ignored because the instruction is squashed
system.cpu00.iew.lsq.thread0.memOrderViolation          517                       # Number of memory ordering violations
system.cpu00.iew.lsq.thread0.squashedStores       320520                       # Number of stores squashed
system.cpu00.iew.lsq.thread0.invAddrSwpfs            0                       # Number of software prefetches ignored due to an invalid address
system.cpu00.iew.lsq.thread0.blockedLoads            0                       # Number of blocked loads due to partial load-store forwarding
system.cpu00.iew.lsq.thread0.rescheduledLoads          260                       # Number of loads that were rescheduled
system.cpu00.iew.lsq.thread0.cacheBlocked        99184                       # Number of times an access to memory failed due to the cache being blocked
system.cpu00.iew.iewIdleCycles                      0                       # Number of cycles IEW is idle
system.cpu00.iew.iewSquashCycles                22619                       # Number of cycles IEW is squashing
system.cpu00.iew.iewBlockCycles                977321                       # Number of cycles IEW is blocking
system.cpu00.iew.iewUnblockCycles              781579                       # Number of cycles IEW is unblocking
system.cpu00.iew.iewDispatchedInsts           6292534                       # Number of instructions dispatched to IQ
system.cpu00.iew.iewDispSquashedInsts            1028                       # Number of squashed instructions skipped by dispatch
system.cpu00.iew.iewDispLoadInsts             1198134                       # Number of dispatched load instructions
system.cpu00.iew.iewDispStoreInsts             532649                       # Number of dispatched store instructions
system.cpu00.iew.iewDispNonSpecInsts             1873                       # Number of dispatched non-speculative instructions
system.cpu00.iew.iewIQFullEvents                44209                       # Number of times the IQ has become full, causing a stall
system.cpu00.iew.iewLSQFullEvents              631691                       # Number of times the LSQ has become full, causing a stall
system.cpu00.iew.memOrderViolationEvents          517                       # Number of memory order violations
system.cpu00.iew.predictedTakenIncorrect         1523                       # Number of branches that were predicted taken incorrectly
system.cpu00.iew.predictedNotTakenIncorrect         2952                       # Number of branches that were predicted not taken incorrectly
system.cpu00.iew.branchMispredicts               4475                       # Number of branch mispredicts detected at execute
system.cpu00.iew.iewExecutedInsts             5922307                       # Number of executed instructions
system.cpu00.iew.iewExecLoadInsts             1186449                       # Number of load instructions executed
system.cpu00.iew.iewExecSquashedInsts            9046                       # Number of squashed instructions skipped in execute
system.cpu00.iew.exec_swp                           0                       # number of swp insts executed
system.cpu00.iew.exec_nop                       66143                       # number of nop insts executed
system.cpu00.iew.exec_refs                    1601939                       # number of memory reference insts executed
system.cpu00.iew.exec_branches                 287714                       # Number of branches executed
system.cpu00.iew.exec_stores                   415490                       # Number of stores executed
system.cpu00.iew.exec_rate                   0.695623                       # Inst execution rate
system.cpu00.iew.wb_sent                      5809142                       # cumulative count of insts sent to commit
system.cpu00.iew.wb_count                     5738988                       # cumulative count of insts written-back
system.cpu00.iew.wb_producers                 4531457                       # num instructions producing a value
system.cpu00.iew.wb_consumers                 5926203                       # num instructions consuming a value
system.cpu00.iew.wb_rate                     0.674091                       # insts written-back per cycle
system.cpu00.iew.wb_fanout                   0.764648                       # average fanout of values written-back
system.cpu00.commit.commitSquashedInsts       1878788                       # The number of squashed insts skipped by commit
system.cpu00.commit.commitNonSpecStalls          2704                       # The number of times commit has been forced to stall to communicate backwards
system.cpu00.commit.branchMispredicts            3694                       # The number of times a branch was mispredicted
system.cpu00.commit.committed_per_cycle::samples      8048187                       # Number of insts commited each cycle
system.cpu00.commit.committed_per_cycle::mean     0.547163                       # Number of insts commited each cycle
system.cpu00.commit.committed_per_cycle::stdev     1.300472                       # Number of insts commited each cycle
system.cpu00.commit.committed_per_cycle::underflows            0      0.00%      0.00% # Number of insts commited each cycle
system.cpu00.commit.committed_per_cycle::0      5826508     72.40%     72.40% # Number of insts commited each cycle
system.cpu00.commit.committed_per_cycle::1      1332709     16.56%     88.95% # Number of insts commited each cycle
system.cpu00.commit.committed_per_cycle::2       494930      6.15%     95.10% # Number of insts commited each cycle
system.cpu00.commit.committed_per_cycle::3       140137      1.74%     96.85% # Number of insts commited each cycle
system.cpu00.commit.committed_per_cycle::4        20612      0.26%     97.10% # Number of insts commited each cycle
system.cpu00.commit.committed_per_cycle::5        80624      1.00%     98.10% # Number of insts commited each cycle
system.cpu00.commit.committed_per_cycle::6        12133      0.15%     98.25% # Number of insts commited each cycle
system.cpu00.commit.committed_per_cycle::7        21945      0.27%     98.53% # Number of insts commited each cycle
system.cpu00.commit.committed_per_cycle::8       118589      1.47%    100.00% # Number of insts commited each cycle
system.cpu00.commit.committed_per_cycle::overflows            0      0.00%    100.00% # Number of insts commited each cycle
system.cpu00.commit.committed_per_cycle::min_value            0                       # Number of insts commited each cycle
system.cpu00.commit.committed_per_cycle::max_value            8                       # Number of insts commited each cycle
system.cpu00.commit.committed_per_cycle::total      8048187                       # Number of insts commited each cycle
system.cpu00.commit.committedInsts            4403673                       # Number of instructions committed
system.cpu00.commit.committedOps              4403673                       # Number of ops (including micro ops) committed
system.cpu00.commit.swp_count                       0                       # Number of s/w prefetches committed
system.cpu00.commit.refs                       814842                       # Number of memory references committed
system.cpu00.commit.loads                      602713                       # Number of loads committed
system.cpu00.commit.membars                      1140                       # Number of memory barriers committed
system.cpu00.commit.branches                   241933                       # Number of branches committed
system.cpu00.commit.fp_insts                  2860888                       # Number of committed floating point instructions.
system.cpu00.commit.int_insts                 1784352                       # Number of committed integer instructions.
system.cpu00.commit.function_calls              75183                       # Number of function calls committed.
system.cpu00.commit.op_class_0::No_OpClass        58236      1.32%      1.32% # Class of committed instruction
system.cpu00.commit.op_class_0::IntAlu         963882     21.89%     23.21% # Class of committed instruction
system.cpu00.commit.op_class_0::IntMult           244      0.01%     23.22% # Class of committed instruction
system.cpu00.commit.op_class_0::IntDiv              0      0.00%     23.22% # Class of committed instruction
system.cpu00.commit.op_class_0::FloatAdd      1713053     38.90%     62.12% # Class of committed instruction
system.cpu00.commit.op_class_0::FloatCmp           10      0.00%     62.12% # Class of committed instruction
system.cpu00.commit.op_class_0::FloatCvt            0      0.00%     62.12% # Class of committed instruction
system.cpu00.commit.op_class_0::FloatMult       852265     19.35%     81.47% # Class of committed instruction
system.cpu00.commit.op_class_0::FloatDiv            0      0.00%     81.47% # Class of committed instruction
system.cpu00.commit.op_class_0::FloatSqrt            0      0.00%     81.47% # Class of committed instruction
system.cpu00.commit.op_class_0::SimdAdd             0      0.00%     81.47% # Class of committed instruction
system.cpu00.commit.op_class_0::SimdAddAcc            0      0.00%     81.47% # Class of committed instruction
system.cpu00.commit.op_class_0::SimdAlu             0      0.00%     81.47% # Class of committed instruction
system.cpu00.commit.op_class_0::SimdCmp             0      0.00%     81.47% # Class of committed instruction
system.cpu00.commit.op_class_0::SimdCvt             0      0.00%     81.47% # Class of committed instruction
system.cpu00.commit.op_class_0::SimdMisc            0      0.00%     81.47% # Class of committed instruction
system.cpu00.commit.op_class_0::SimdMult            0      0.00%     81.47% # Class of committed instruction
system.cpu00.commit.op_class_0::SimdMultAcc            0      0.00%     81.47% # Class of committed instruction
system.cpu00.commit.op_class_0::SimdShift            0      0.00%     81.47% # Class of committed instruction
system.cpu00.commit.op_class_0::SimdShiftAcc            0      0.00%     81.47% # Class of committed instruction
system.cpu00.commit.op_class_0::SimdSqrt            0      0.00%     81.47% # Class of committed instruction
system.cpu00.commit.op_class_0::SimdFloatAdd            0      0.00%     81.47% # Class of committed instruction
system.cpu00.commit.op_class_0::SimdFloatAlu            0      0.00%     81.47% # Class of committed instruction
system.cpu00.commit.op_class_0::SimdFloatCmp            0      0.00%     81.47% # Class of committed instruction
system.cpu00.commit.op_class_0::SimdFloatCvt            0      0.00%     81.47% # Class of committed instruction
system.cpu00.commit.op_class_0::SimdFloatDiv            0      0.00%     81.47% # Class of committed instruction
system.cpu00.commit.op_class_0::SimdFloatMisc            0      0.00%     81.47% # Class of committed instruction
system.cpu00.commit.op_class_0::SimdFloatMult            0      0.00%     81.47% # Class of committed instruction
system.cpu00.commit.op_class_0::SimdFloatMultAcc            0      0.00%     81.47% # Class of committed instruction
system.cpu00.commit.op_class_0::SimdFloatSqrt            0      0.00%     81.47% # Class of committed instruction
system.cpu00.commit.op_class_0::MemRead        603853     13.71%     95.18% # Class of committed instruction
system.cpu00.commit.op_class_0::MemWrite       212130      4.82%    100.00% # Class of committed instruction
system.cpu00.commit.op_class_0::IprAccess            0      0.00%    100.00% # Class of committed instruction
system.cpu00.commit.op_class_0::InstPrefetch            0      0.00%    100.00% # Class of committed instruction
system.cpu00.commit.op_class_0::total         4403673                       # Class of committed instruction
system.cpu00.commit.bw_lim_events              118589                       # number cycles where commit BW limit reached
system.cpu00.rob.rob_reads                   13971806                       # The number of ROB reads
system.cpu00.rob.rob_writes                  12813245                       # The number of ROB writes
system.cpu00.timesIdled                          1501                       # Number of times that the entire CPU went into an idle state and unscheduled itself
system.cpu00.idleCycles                        217247                       # Total number of cycles that the CPU has spent unscheduled due to idling
system.cpu00.quiesceCycles                     305811                       # Total number of cycles that CPU has spent quiesced or waiting for an interrupt
system.cpu00.committedInsts                   4345437                       # Number of Instructions Simulated
system.cpu00.committedOps                     4345437                       # Number of Ops (including micro ops) Simulated
system.cpu00.cpi                             1.959221                       # CPI: Cycles Per Instruction
system.cpu00.cpi_total                       1.959221                       # CPI: Total CPI of All Threads
system.cpu00.ipc                             0.510407                       # IPC: Instructions Per Cycle
system.cpu00.ipc_total                       0.510407                       # IPC: Total IPC of All Threads
system.cpu00.int_regfile_reads                4556617                       # number of integer regfile reads
system.cpu00.int_regfile_writes               2268372                       # number of integer regfile writes
system.cpu00.fp_regfile_reads                 4016755                       # number of floating regfile reads
system.cpu00.fp_regfile_writes                2836025                       # number of floating regfile writes
system.cpu00.misc_regfile_reads                  3013                       # number of misc regfile reads
system.cpu00.misc_regfile_writes                 2496                       # number of misc regfile writes
system.cpu00.dcache.tags.replacements           69254                       # number of replacements
system.cpu00.dcache.tags.tagsinuse          63.787391                       # Cycle average of tags in use
system.cpu00.dcache.tags.total_refs           1137150                       # Total number of references to valid blocks.
system.cpu00.dcache.tags.sampled_refs           69318                       # Sample count of references to valid blocks.
system.cpu00.dcache.tags.avg_refs           16.404830                       # Average number of references to valid blocks.
system.cpu00.dcache.tags.warmup_cycle        87548688                       # Cycle when the warmup percentage was hit.
system.cpu00.dcache.tags.occ_blocks::cpu00.data    63.787391                       # Average occupied blocks per requestor
system.cpu00.dcache.tags.occ_percent::cpu00.data     0.996678                       # Average percentage of cache occupancy
system.cpu00.dcache.tags.occ_percent::total     0.996678                       # Average percentage of cache occupancy
system.cpu00.dcache.tags.occ_task_id_blocks::1024           64                       # Occupied blocks per task id
system.cpu00.dcache.tags.age_task_id_blocks_1024::0           47                       # Occupied blocks per task id
system.cpu00.dcache.tags.age_task_id_blocks_1024::1           16                       # Occupied blocks per task id
system.cpu00.dcache.tags.age_task_id_blocks_1024::2            1                       # Occupied blocks per task id
system.cpu00.dcache.tags.occ_task_id_percent::1024            1                       # Percentage of cache occupancy per task id
system.cpu00.dcache.tags.tag_accesses         2653683                       # Number of tag accesses
system.cpu00.dcache.tags.data_accesses        2653683                       # Number of data accesses
system.cpu00.dcache.ReadReq_hits::cpu00.data      1000479                       # number of ReadReq hits
system.cpu00.dcache.ReadReq_hits::total       1000479                       # number of ReadReq hits
system.cpu00.dcache.WriteReq_hits::cpu00.data       134370                       # number of WriteReq hits
system.cpu00.dcache.WriteReq_hits::total       134370                       # number of WriteReq hits
system.cpu00.dcache.LoadLockedReq_hits::cpu00.data          974                       # number of LoadLockedReq hits
system.cpu00.dcache.LoadLockedReq_hits::total          974                       # number of LoadLockedReq hits
system.cpu00.dcache.StoreCondReq_hits::cpu00.data         1233                       # number of StoreCondReq hits
system.cpu00.dcache.StoreCondReq_hits::total         1233                       # number of StoreCondReq hits
system.cpu00.dcache.demand_hits::cpu00.data      1134849                       # number of demand (read+write) hits
system.cpu00.dcache.demand_hits::total        1134849                       # number of demand (read+write) hits
system.cpu00.dcache.overall_hits::cpu00.data      1134849                       # number of overall hits
system.cpu00.dcache.overall_hits::total       1134849                       # number of overall hits
system.cpu00.dcache.ReadReq_misses::cpu00.data        78184                       # number of ReadReq misses
system.cpu00.dcache.ReadReq_misses::total        78184                       # number of ReadReq misses
system.cpu00.dcache.WriteReq_misses::cpu00.data        76513                       # number of WriteReq misses
system.cpu00.dcache.WriteReq_misses::total        76513                       # number of WriteReq misses
system.cpu00.dcache.LoadLockedReq_misses::cpu00.data          322                       # number of LoadLockedReq misses
system.cpu00.dcache.LoadLockedReq_misses::total          322                       # number of LoadLockedReq misses
system.cpu00.dcache.StoreCondReq_misses::cpu00.data           13                       # number of StoreCondReq misses
system.cpu00.dcache.StoreCondReq_misses::total           13                       # number of StoreCondReq misses
system.cpu00.dcache.demand_misses::cpu00.data       154697                       # number of demand (read+write) misses
system.cpu00.dcache.demand_misses::total       154697                       # number of demand (read+write) misses
system.cpu00.dcache.overall_misses::cpu00.data       154697                       # number of overall misses
system.cpu00.dcache.overall_misses::total       154697                       # number of overall misses
system.cpu00.dcache.ReadReq_miss_latency::cpu00.data   6663250674                       # number of ReadReq miss cycles
system.cpu00.dcache.ReadReq_miss_latency::total   6663250674                       # number of ReadReq miss cycles
system.cpu00.dcache.WriteReq_miss_latency::cpu00.data  11002716643                       # number of WriteReq miss cycles
system.cpu00.dcache.WriteReq_miss_latency::total  11002716643                       # number of WriteReq miss cycles
system.cpu00.dcache.LoadLockedReq_miss_latency::cpu00.data      4259709                       # number of LoadLockedReq miss cycles
system.cpu00.dcache.LoadLockedReq_miss_latency::total      4259709                       # number of LoadLockedReq miss cycles
system.cpu00.dcache.StoreCondReq_miss_latency::cpu00.data       103329                       # number of StoreCondReq miss cycles
system.cpu00.dcache.StoreCondReq_miss_latency::total       103329                       # number of StoreCondReq miss cycles
system.cpu00.dcache.demand_miss_latency::cpu00.data  17665967317                       # number of demand (read+write) miss cycles
system.cpu00.dcache.demand_miss_latency::total  17665967317                       # number of demand (read+write) miss cycles
system.cpu00.dcache.overall_miss_latency::cpu00.data  17665967317                       # number of overall miss cycles
system.cpu00.dcache.overall_miss_latency::total  17665967317                       # number of overall miss cycles
system.cpu00.dcache.ReadReq_accesses::cpu00.data      1078663                       # number of ReadReq accesses(hits+misses)
system.cpu00.dcache.ReadReq_accesses::total      1078663                       # number of ReadReq accesses(hits+misses)
system.cpu00.dcache.WriteReq_accesses::cpu00.data       210883                       # number of WriteReq accesses(hits+misses)
system.cpu00.dcache.WriteReq_accesses::total       210883                       # number of WriteReq accesses(hits+misses)
system.cpu00.dcache.LoadLockedReq_accesses::cpu00.data         1296                       # number of LoadLockedReq accesses(hits+misses)
system.cpu00.dcache.LoadLockedReq_accesses::total         1296                       # number of LoadLockedReq accesses(hits+misses)
system.cpu00.dcache.StoreCondReq_accesses::cpu00.data         1246                       # number of StoreCondReq accesses(hits+misses)
system.cpu00.dcache.StoreCondReq_accesses::total         1246                       # number of StoreCondReq accesses(hits+misses)
system.cpu00.dcache.demand_accesses::cpu00.data      1289546                       # number of demand (read+write) accesses
system.cpu00.dcache.demand_accesses::total      1289546                       # number of demand (read+write) accesses
system.cpu00.dcache.overall_accesses::cpu00.data      1289546                       # number of overall (read+write) accesses
system.cpu00.dcache.overall_accesses::total      1289546                       # number of overall (read+write) accesses
system.cpu00.dcache.ReadReq_miss_rate::cpu00.data     0.072482                       # miss rate for ReadReq accesses
system.cpu00.dcache.ReadReq_miss_rate::total     0.072482                       # miss rate for ReadReq accesses
system.cpu00.dcache.WriteReq_miss_rate::cpu00.data     0.362822                       # miss rate for WriteReq accesses
system.cpu00.dcache.WriteReq_miss_rate::total     0.362822                       # miss rate for WriteReq accesses
system.cpu00.dcache.LoadLockedReq_miss_rate::cpu00.data     0.248457                       # miss rate for LoadLockedReq accesses
system.cpu00.dcache.LoadLockedReq_miss_rate::total     0.248457                       # miss rate for LoadLockedReq accesses
system.cpu00.dcache.StoreCondReq_miss_rate::cpu00.data     0.010433                       # miss rate for StoreCondReq accesses
system.cpu00.dcache.StoreCondReq_miss_rate::total     0.010433                       # miss rate for StoreCondReq accesses
system.cpu00.dcache.demand_miss_rate::cpu00.data     0.119962                       # miss rate for demand accesses
system.cpu00.dcache.demand_miss_rate::total     0.119962                       # miss rate for demand accesses
system.cpu00.dcache.overall_miss_rate::cpu00.data     0.119962                       # miss rate for overall accesses
system.cpu00.dcache.overall_miss_rate::total     0.119962                       # miss rate for overall accesses
system.cpu00.dcache.ReadReq_avg_miss_latency::cpu00.data 85225.246521                       # average ReadReq miss latency
system.cpu00.dcache.ReadReq_avg_miss_latency::total 85225.246521                       # average ReadReq miss latency
system.cpu00.dcache.WriteReq_avg_miss_latency::cpu00.data 143801.924418                       # average WriteReq miss latency
system.cpu00.dcache.WriteReq_avg_miss_latency::total 143801.924418                       # average WriteReq miss latency
system.cpu00.dcache.LoadLockedReq_avg_miss_latency::cpu00.data 13228.909938                       # average LoadLockedReq miss latency
system.cpu00.dcache.LoadLockedReq_avg_miss_latency::total 13228.909938                       # average LoadLockedReq miss latency
system.cpu00.dcache.StoreCondReq_avg_miss_latency::cpu00.data  7948.384615                       # average StoreCondReq miss latency
system.cpu00.dcache.StoreCondReq_avg_miss_latency::total  7948.384615                       # average StoreCondReq miss latency
system.cpu00.dcache.demand_avg_miss_latency::cpu00.data 114197.219836                       # average overall miss latency
system.cpu00.dcache.demand_avg_miss_latency::total 114197.219836                       # average overall miss latency
system.cpu00.dcache.overall_avg_miss_latency::cpu00.data 114197.219836                       # average overall miss latency
system.cpu00.dcache.overall_avg_miss_latency::total 114197.219836                       # average overall miss latency
system.cpu00.dcache.blocked_cycles::no_mshrs       359324                       # number of cycles access was blocked
system.cpu00.dcache.blocked_cycles::no_targets          144                       # number of cycles access was blocked
system.cpu00.dcache.blocked::no_mshrs           10786                       # number of cycles access was blocked
system.cpu00.dcache.blocked::no_targets            14                       # number of cycles access was blocked
system.cpu00.dcache.avg_blocked_cycles::no_mshrs    33.313925                       # average number of cycles each access was blocked
system.cpu00.dcache.avg_blocked_cycles::no_targets    10.285714                       # average number of cycles each access was blocked
system.cpu00.dcache.fast_writes                     0                       # number of fast writes performed
system.cpu00.dcache.cache_copies                    0                       # number of cache copies performed
system.cpu00.dcache.writebacks::writebacks        61298                       # number of writebacks
system.cpu00.dcache.writebacks::total           61298                       # number of writebacks
system.cpu00.dcache.ReadReq_mshr_hits::cpu00.data        47953                       # number of ReadReq MSHR hits
system.cpu00.dcache.ReadReq_mshr_hits::total        47953                       # number of ReadReq MSHR hits
system.cpu00.dcache.WriteReq_mshr_hits::cpu00.data        37363                       # number of WriteReq MSHR hits
system.cpu00.dcache.WriteReq_mshr_hits::total        37363                       # number of WriteReq MSHR hits
system.cpu00.dcache.LoadLockedReq_mshr_hits::cpu00.data          137                       # number of LoadLockedReq MSHR hits
system.cpu00.dcache.LoadLockedReq_mshr_hits::total          137                       # number of LoadLockedReq MSHR hits
system.cpu00.dcache.demand_mshr_hits::cpu00.data        85316                       # number of demand (read+write) MSHR hits
system.cpu00.dcache.demand_mshr_hits::total        85316                       # number of demand (read+write) MSHR hits
system.cpu00.dcache.overall_mshr_hits::cpu00.data        85316                       # number of overall MSHR hits
system.cpu00.dcache.overall_mshr_hits::total        85316                       # number of overall MSHR hits
system.cpu00.dcache.ReadReq_mshr_misses::cpu00.data        30231                       # number of ReadReq MSHR misses
system.cpu00.dcache.ReadReq_mshr_misses::total        30231                       # number of ReadReq MSHR misses
system.cpu00.dcache.WriteReq_mshr_misses::cpu00.data        39150                       # number of WriteReq MSHR misses
system.cpu00.dcache.WriteReq_mshr_misses::total        39150                       # number of WriteReq MSHR misses
system.cpu00.dcache.LoadLockedReq_mshr_misses::cpu00.data          185                       # number of LoadLockedReq MSHR misses
system.cpu00.dcache.LoadLockedReq_mshr_misses::total          185                       # number of LoadLockedReq MSHR misses
system.cpu00.dcache.StoreCondReq_mshr_misses::cpu00.data           13                       # number of StoreCondReq MSHR misses
system.cpu00.dcache.StoreCondReq_mshr_misses::total           13                       # number of StoreCondReq MSHR misses
system.cpu00.dcache.demand_mshr_misses::cpu00.data        69381                       # number of demand (read+write) MSHR misses
system.cpu00.dcache.demand_mshr_misses::total        69381                       # number of demand (read+write) MSHR misses
system.cpu00.dcache.overall_mshr_misses::cpu00.data        69381                       # number of overall MSHR misses
system.cpu00.dcache.overall_mshr_misses::total        69381                       # number of overall MSHR misses
system.cpu00.dcache.ReadReq_mshr_miss_latency::cpu00.data   2623285305                       # number of ReadReq MSHR miss cycles
system.cpu00.dcache.ReadReq_mshr_miss_latency::total   2623285305                       # number of ReadReq MSHR miss cycles
system.cpu00.dcache.WriteReq_mshr_miss_latency::cpu00.data   4882546162                       # number of WriteReq MSHR miss cycles
system.cpu00.dcache.WriteReq_mshr_miss_latency::total   4882546162                       # number of WriteReq MSHR miss cycles
system.cpu00.dcache.LoadLockedReq_mshr_miss_latency::cpu00.data      2030589                       # number of LoadLockedReq MSHR miss cycles
system.cpu00.dcache.LoadLockedReq_mshr_miss_latency::total      2030589                       # number of LoadLockedReq MSHR miss cycles
system.cpu00.dcache.StoreCondReq_mshr_miss_latency::cpu00.data        88236                       # number of StoreCondReq MSHR miss cycles
system.cpu00.dcache.StoreCondReq_mshr_miss_latency::total        88236                       # number of StoreCondReq MSHR miss cycles
system.cpu00.dcache.demand_mshr_miss_latency::cpu00.data   7505831467                       # number of demand (read+write) MSHR miss cycles
system.cpu00.dcache.demand_mshr_miss_latency::total   7505831467                       # number of demand (read+write) MSHR miss cycles
system.cpu00.dcache.overall_mshr_miss_latency::cpu00.data   7505831467                       # number of overall MSHR miss cycles
system.cpu00.dcache.overall_mshr_miss_latency::total   7505831467                       # number of overall MSHR miss cycles
system.cpu00.dcache.ReadReq_mshr_miss_rate::cpu00.data     0.028026                       # mshr miss rate for ReadReq accesses
system.cpu00.dcache.ReadReq_mshr_miss_rate::total     0.028026                       # mshr miss rate for ReadReq accesses
system.cpu00.dcache.WriteReq_mshr_miss_rate::cpu00.data     0.185648                       # mshr miss rate for WriteReq accesses
system.cpu00.dcache.WriteReq_mshr_miss_rate::total     0.185648                       # mshr miss rate for WriteReq accesses
system.cpu00.dcache.LoadLockedReq_mshr_miss_rate::cpu00.data     0.142747                       # mshr miss rate for LoadLockedReq accesses
system.cpu00.dcache.LoadLockedReq_mshr_miss_rate::total     0.142747                       # mshr miss rate for LoadLockedReq accesses
system.cpu00.dcache.StoreCondReq_mshr_miss_rate::cpu00.data     0.010433                       # mshr miss rate for StoreCondReq accesses
system.cpu00.dcache.StoreCondReq_mshr_miss_rate::total     0.010433                       # mshr miss rate for StoreCondReq accesses
system.cpu00.dcache.demand_mshr_miss_rate::cpu00.data     0.053803                       # mshr miss rate for demand accesses
system.cpu00.dcache.demand_mshr_miss_rate::total     0.053803                       # mshr miss rate for demand accesses
system.cpu00.dcache.overall_mshr_miss_rate::cpu00.data     0.053803                       # mshr miss rate for overall accesses
system.cpu00.dcache.overall_mshr_miss_rate::total     0.053803                       # mshr miss rate for overall accesses
system.cpu00.dcache.ReadReq_avg_mshr_miss_latency::cpu00.data 86774.678476                       # average ReadReq mshr miss latency
system.cpu00.dcache.ReadReq_avg_mshr_miss_latency::total 86774.678476                       # average ReadReq mshr miss latency
system.cpu00.dcache.WriteReq_avg_mshr_miss_latency::cpu00.data 124713.822784                       # average WriteReq mshr miss latency
system.cpu00.dcache.WriteReq_avg_mshr_miss_latency::total 124713.822784                       # average WriteReq mshr miss latency
system.cpu00.dcache.LoadLockedReq_avg_mshr_miss_latency::cpu00.data 10976.156757                       # average LoadLockedReq mshr miss latency
system.cpu00.dcache.LoadLockedReq_avg_mshr_miss_latency::total 10976.156757                       # average LoadLockedReq mshr miss latency
system.cpu00.dcache.StoreCondReq_avg_mshr_miss_latency::cpu00.data  6787.384615                       # average StoreCondReq mshr miss latency
system.cpu00.dcache.StoreCondReq_avg_mshr_miss_latency::total  6787.384615                       # average StoreCondReq mshr miss latency
system.cpu00.dcache.demand_avg_mshr_miss_latency::cpu00.data 108182.808939                       # average overall mshr miss latency
system.cpu00.dcache.demand_avg_mshr_miss_latency::total 108182.808939                       # average overall mshr miss latency
system.cpu00.dcache.overall_avg_mshr_miss_latency::cpu00.data 108182.808939                       # average overall mshr miss latency
system.cpu00.dcache.overall_avg_mshr_miss_latency::total 108182.808939                       # average overall mshr miss latency
system.cpu00.dcache.no_allocate_misses              0                       # Number of misses that were no-allocate
system.cpu00.icache.tags.replacements            7158                       # number of replacements
system.cpu00.icache.tags.tagsinuse         506.998520                       # Cycle average of tags in use
[...]
system.tol2bus.pkt_count_system.cpu06.dcache.mem_side::system.l2.cpu_side       163923                       # Packet count per connected master and slave (bytes)
system.tol2bus.pkt_count_system.cpu07.icache.mem_side::system.l2.cpu_side          995                       # Packet count per connected master and slave (bytes)
system.tol2bus.pkt_count_system.cpu07.dcache.mem_side::system.l2.cpu_side       158056                       # Packet count per connected master and slave (bytes)
system.tol2bus.pkt_count_system.cpu08.icache.mem_side::system.l2.cpu_side          844                       # Packet count per connected master and slave (bytes)
system.tol2bus.pkt_count_system.cpu08.dcache.mem_side::system.l2.cpu_side       187311                       # Packet count per connected master and slave (bytes)
system.tol2bus.pkt_count_system.cpu09.icache.mem_side::system.l2.cpu_side          993                       # Packet count per connected master and slave (bytes)
system.tol2bus.pkt_count_system.cpu09.dcache.mem_side::system.l2.cpu_side       157577                       # Packet count per connected master and slave (bytes)
system.tol2bus.pkt_count_system.cpu10.icache.mem_side::system.l2.cpu_side          846                       # Packet count per connected master and slave (bytes)
system.tol2bus.pkt_count_system.cpu10.dcache.mem_side::system.l2.cpu_side       162576                       # Packet count per connected master and slave (bytes)
system.tol2bus.pkt_count_system.cpu11.icache.mem_side::system.l2.cpu_side          995                       # Packet count per connected master and slave (bytes)
system.tol2bus.pkt_count_system.cpu11.dcache.mem_side::system.l2.cpu_side       156919                       # Packet count per connected master and slave (bytes)
system.tol2bus.pkt_count_system.cpu12.icache.mem_side::system.l2.cpu_side         1088                       # Packet count per connected master and slave (bytes)
system.tol2bus.pkt_count_system.cpu12.dcache.mem_side::system.l2.cpu_side       175090                       # Packet count per connected master and slave (bytes)
system.tol2bus.pkt_count_system.cpu13.icache.mem_side::system.l2.cpu_side          844                       # Packet count per connected master and slave (bytes)
system.tol2bus.pkt_count_system.cpu13.dcache.mem_side::system.l2.cpu_side       157053                       # Packet count per connected master and slave (bytes)
system.tol2bus.pkt_count_system.cpu14.icache.mem_side::system.l2.cpu_side         1009                       # Packet count per connected master and slave (bytes)
system.tol2bus.pkt_count_system.cpu14.dcache.mem_side::system.l2.cpu_side       165054                       # Packet count per connected master and slave (bytes)
system.tol2bus.pkt_count_system.cpu15.icache.mem_side::system.l2.cpu_side         1002                       # Packet count per connected master and slave (bytes)
system.tol2bus.pkt_count_system.cpu15.dcache.mem_side::system.l2.cpu_side       163331                       # Packet count per connected master and slave (bytes)
system.tol2bus.pkt_count::total               2696248                       # Packet count per connected master and slave (bytes)
system.tol2bus.pkt_size_system.cpu00.icache.mem_side::system.l2.cpu_side       948992                       # Cumulative packet size per connected master and slave (bytes)
system.tol2bus.pkt_size_system.cpu00.dcache.mem_side::system.l2.cpu_side      8341504                       # Cumulative packet size per connected master and slave (bytes)
system.tol2bus.pkt_size_system.cpu01.icache.mem_side::system.l2.cpu_side        37248                       # Cumulative packet size per connected master and slave (bytes)
system.tol2bus.pkt_size_system.cpu01.dcache.mem_side::system.l2.cpu_side      6388736                       # Cumulative packet size per connected master and slave (bytes)
system.tol2bus.pkt_size_system.cpu02.icache.mem_side::system.l2.cpu_side        29888                       # Cumulative packet size per connected master and slave (bytes)
system.tol2bus.pkt_size_system.cpu02.dcache.mem_side::system.l2.cpu_side      6601216                       # Cumulative packet size per connected master and slave (bytes)
system.tol2bus.pkt_size_system.cpu03.icache.mem_side::system.l2.cpu_side        34624                       # Cumulative packet size per connected master and slave (bytes)
system.tol2bus.pkt_size_system.cpu03.dcache.mem_side::system.l2.cpu_side      6439616                       # Cumulative packet size per connected master and slave (bytes)
system.tol2bus.pkt_size_system.cpu04.icache.mem_side::system.l2.cpu_side        28544                       # Cumulative packet size per connected master and slave (bytes)
system.tol2bus.pkt_size_system.cpu04.dcache.mem_side::system.l2.cpu_side      7200768                       # Cumulative packet size per connected master and slave (bytes)
system.tol2bus.pkt_size_system.cpu05.icache.mem_side::system.l2.cpu_side        34496                       # Cumulative packet size per connected master and slave (bytes)
system.tol2bus.pkt_size_system.cpu05.dcache.mem_side::system.l2.cpu_side      6461824                       # Cumulative packet size per connected master and slave (bytes)
system.tol2bus.pkt_size_system.cpu06.icache.mem_side::system.l2.cpu_side        28544                       # Cumulative packet size per connected master and slave (bytes)
system.tol2bus.pkt_size_system.cpu06.dcache.mem_side::system.l2.cpu_side      6741440                       # Cumulative packet size per connected master and slave (bytes)
system.tol2bus.pkt_size_system.cpu07.icache.mem_side::system.l2.cpu_side        34496                       # Cumulative packet size per connected master and slave (bytes)
system.tol2bus.pkt_size_system.cpu07.dcache.mem_side::system.l2.cpu_side      6540224                       # Cumulative packet size per connected master and slave (bytes)
system.tol2bus.pkt_size_system.cpu08.icache.mem_side::system.l2.cpu_side        28480                       # Cumulative packet size per connected master and slave (bytes)
system.tol2bus.pkt_size_system.cpu08.dcache.mem_side::system.l2.cpu_side      7753792                       # Cumulative packet size per connected master and slave (bytes)
system.tol2bus.pkt_size_system.cpu09.icache.mem_side::system.l2.cpu_side        34432                       # Cumulative packet size per connected master and slave (bytes)
system.tol2bus.pkt_size_system.cpu09.dcache.mem_side::system.l2.cpu_side      6513088                       # Cumulative packet size per connected master and slave (bytes)
system.tol2bus.pkt_size_system.cpu10.icache.mem_side::system.l2.cpu_side        28544                       # Cumulative packet size per connected master and slave (bytes)
system.tol2bus.pkt_size_system.cpu10.dcache.mem_side::system.l2.cpu_side      6707136                       # Cumulative packet size per connected master and slave (bytes)
system.tol2bus.pkt_size_system.cpu11.icache.mem_side::system.l2.cpu_side        34496                       # Cumulative packet size per connected master and slave (bytes)
system.tol2bus.pkt_size_system.cpu11.dcache.mem_side::system.l2.cpu_side      6475968                       # Cumulative packet size per connected master and slave (bytes)
system.tol2bus.pkt_size_system.cpu12.icache.mem_side::system.l2.cpu_side        38144                       # Cumulative packet size per connected master and slave (bytes)
system.tol2bus.pkt_size_system.cpu12.dcache.mem_side::system.l2.cpu_side      7217152                       # Cumulative packet size per connected master and slave (bytes)
system.tol2bus.pkt_size_system.cpu13.icache.mem_side::system.l2.cpu_side        28480                       # Cumulative packet size per connected master and slave (bytes)
system.tol2bus.pkt_size_system.cpu13.dcache.mem_side::system.l2.cpu_side      6500160                       # Cumulative packet size per connected master and slave (bytes)
system.tol2bus.pkt_size_system.cpu14.icache.mem_side::system.l2.cpu_side        35008                       # Cumulative packet size per connected master and slave (bytes)
system.tol2bus.pkt_size_system.cpu14.dcache.mem_side::system.l2.cpu_side      6792320                       # Cumulative packet size per connected master and slave (bytes)
system.tol2bus.pkt_size_system.cpu15.icache.mem_side::system.l2.cpu_side        34752                       # Cumulative packet size per connected master and slave (bytes)
system.tol2bus.pkt_size_system.cpu15.dcache.mem_side::system.l2.cpu_side      6772096                       # Cumulative packet size per connected master and slave (bytes)
system.tol2bus.pkt_size::total              110886208                       # Cumulative packet size per connected master and slave (bytes)
system.tol2bus.snoops                          137087                       # Total snoops (count)
system.tol2bus.snoop_fanout::samples          1038591                       # Request fanout histogram
system.tol2bus.snoop_fanout::mean            0.077639                       # Request fanout histogram
system.tol2bus.snoop_fanout::stdev           0.844218                       # Request fanout histogram
system.tol2bus.snoop_fanout::underflows             0      0.00%      0.00% # Request fanout histogram
system.tol2bus.snoop_fanout::0                1021815     98.38%     98.38% # Request fanout histogram
system.tol2bus.snoop_fanout::1                   6752      0.65%     99.03% # Request fanout histogram
system.tol2bus.snoop_fanout::2                   1627      0.16%     99.19% # Request fanout histogram
system.tol2bus.snoop_fanout::3                   1074      0.10%     99.29% # Request fanout histogram
system.tol2bus.snoop_fanout::4                    833      0.08%     99.38% # Request fanout histogram
system.tol2bus.snoop_fanout::5                    800      0.08%     99.45% # Request fanout histogram
system.tol2bus.snoop_fanout::6                    687      0.07%     99.52% # Request fanout histogram
system.tol2bus.snoop_fanout::7                    594      0.06%     99.58% # Request fanout histogram
system.tol2bus.snoop_fanout::8                    570      0.05%     99.63% # Request fanout histogram
system.tol2bus.snoop_fanout::9                    550      0.05%     99.68% # Request fanout histogram
system.tol2bus.snoop_fanout::10                   486      0.05%     99.73% # Request fanout histogram
system.tol2bus.snoop_fanout::11                   493      0.05%     99.78% # Request fanout histogram
system.tol2bus.snoop_fanout::12                   476      0.05%     99.82% # Request fanout histogram
system.tol2bus.snoop_fanout::13                   461      0.04%     99.87% # Request fanout histogram
system.tol2bus.snoop_fanout::14                   476      0.05%     99.91% # Request fanout histogram
system.tol2bus.snoop_fanout::15                   719      0.07%     99.98% # Request fanout histogram
system.tol2bus.snoop_fanout::16                   178      0.02%    100.00% # Request fanout histogram
system.tol2bus.snoop_fanout::17                     0      0.00%    100.00% # Request fanout histogram
system.tol2bus.snoop_fanout::18                     0      0.00%    100.00% # Request fanout histogram
system.tol2bus.snoop_fanout::19                     0      0.00%    100.00% # Request fanout histogram
system.tol2bus.snoop_fanout::20                     0      0.00%    100.00% # Request fanout histogram
system.tol2bus.snoop_fanout::21                     0      0.00%    100.00% # Request fanout histogram
system.tol2bus.snoop_fanout::22                     0      0.00%    100.00% # Request fanout histogram
system.tol2bus.snoop_fanout::23                     0      0.00%    100.00% # Request fanout histogram
system.tol2bus.snoop_fanout::24                     0      0.00%    100.00% # Request fanout histogram
system.tol2bus.snoop_fanout::25                     0      0.00%    100.00% # Request fanout histogram
system.tol2bus.snoop_fanout::26                     0      0.00%    100.00% # Request fanout histogram
system.tol2bus.snoop_fanout::27                     0      0.00%    100.00% # Request fanout histogram
system.tol2bus.snoop_fanout::28                     0      0.00%    100.00% # Request fanout histogram
system.tol2bus.snoop_fanout::29                     0      0.00%    100.00% # Request fanout histogram
system.tol2bus.snoop_fanout::30                     0      0.00%    100.00% # Request fanout histogram
system.tol2bus.snoop_fanout::31                     0      0.00%    100.00% # Request fanout histogram
system.tol2bus.snoop_fanout::32                     0      0.00%    100.00% # Request fanout histogram
system.tol2bus.snoop_fanout::overflows              0      0.00%    100.00% # Request fanout histogram
system.tol2bus.snoop_fanout::min_value              0                       # Request fanout histogram
system.tol2bus.snoop_fanout::max_value             16                       # Request fanout histogram
system.tol2bus.snoop_fanout::total            1038591                       # Request fanout histogram
system.tol2bus.reqLayer0.occupancy         4037612006                       # Layer occupancy (ticks)
system.tol2bus.reqLayer0.utilization             39.4                       # Layer utilization (%)
system.tol2bus.respLayer0.occupancy          27045180                       # Layer occupancy (ticks)
system.tol2bus.respLayer0.utilization             0.3                       # Layer utilization (%)
system.tol2bus.respLayer1.occupancy         244200355                       # Layer occupancy (ticks)
system.tol2bus.respLayer1.utilization             2.4                       # Layer utilization (%)
system.tol2bus.respLayer2.occupancy           1694595                       # Layer occupancy (ticks)
system.tol2bus.respLayer2.utilization             0.0                       # Layer utilization (%)
system.tol2bus.respLayer3.occupancy         183147848                       # Layer occupancy (ticks)
system.tol2bus.respLayer3.utilization             1.8                       # Layer utilization (%)
system.tol2bus.respLayer4.occupancy           1476709                       # Layer occupancy (ticks)
system.tol2bus.respLayer4.utilization             0.0                       # Layer utilization (%)
system.tol2bus.respLayer5.occupancy         190469792                       # Layer occupancy (ticks)
system.tol2bus.respLayer5.utilization             1.9                       # Layer utilization (%)
system.tol2bus.respLayer6.occupancy           1620870                       # Layer occupancy (ticks)
system.tol2bus.respLayer6.utilization             0.0                       # Layer utilization (%)
system.tol2bus.respLayer7.occupancy         183605721                       # Layer occupancy (ticks)
system.tol2bus.respLayer7.utilization             1.8                       # Layer utilization (%)
system.tol2bus.respLayer8.occupancy           1415537                       # Layer occupancy (ticks)
system.tol2bus.respLayer8.utilization             0.0                       # Layer utilization (%)
system.tol2bus.respLayer9.occupancy         205268627                       # Layer occupancy (ticks)
system.tol2bus.respLayer9.utilization             2.0                       # Layer utilization (%)
system.tol2bus.respLayer10.occupancy          1616024                       # Layer occupancy (ticks)
system.tol2bus.respLayer10.utilization            0.0                       # Layer utilization (%)
system.tol2bus.respLayer11.occupancy        183788362                       # Layer occupancy (ticks)
system.tol2bus.respLayer11.utilization            1.8                       # Layer utilization (%)
system.tol2bus.respLayer12.occupancy          1417464                       # Layer occupancy (ticks)
system.tol2bus.respLayer12.utilization            0.0                       # Layer utilization (%)
system.tol2bus.respLayer13.occupancy        192727790                       # Layer occupancy (ticks)
system.tol2bus.respLayer13.utilization            1.9                       # Layer utilization (%)
system.tol2bus.respLayer14.occupancy          1606744                       # Layer occupancy (ticks)
system.tol2bus.respLayer14.utilization            0.0                       # Layer utilization (%)
system.tol2bus.respLayer15.occupancy        185739502                       # Layer occupancy (ticks)
system.tol2bus.respLayer15.utilization            1.8                       # Layer utilization (%)
system.tol2bus.respLayer16.occupancy          1418650                       # Layer occupancy (ticks)
system.tol2bus.respLayer16.utilization            0.0                       # Layer utilization (%)
system.tol2bus.respLayer17.occupancy        220140800                       # Layer occupancy (ticks)
system.tol2bus.respLayer17.utilization            2.1                       # Layer utilization (%)
system.tol2bus.respLayer18.occupancy          1607899                       # Layer occupancy (ticks)
system.tol2bus.respLayer18.utilization            0.0                       # Layer utilization (%)
system.tol2bus.respLayer19.occupancy        185168572                       # Layer occupancy (ticks)
system.tol2bus.respLayer19.utilization            1.8                       # Layer utilization (%)
system.tol2bus.respLayer20.occupancy          1419614                       # Layer occupancy (ticks)
system.tol2bus.respLayer20.utilization            0.0                       # Layer utilization (%)
system.tol2bus.respLayer21.occupancy        191274657                       # Layer occupancy (ticks)
system.tol2bus.respLayer21.utilization            1.9                       # Layer utilization (%)
system.tol2bus.respLayer22.occupancy          1619770                       # Layer occupancy (ticks)
system.tol2bus.respLayer22.utilization            0.0                       # Layer utilization (%)
system.tol2bus.respLayer23.occupancy        184441923                       # Layer occupancy (ticks)
system.tol2bus.respLayer23.utilization            1.8                       # Layer utilization (%)
system.tol2bus.respLayer24.occupancy          1741399                       # Layer occupancy (ticks)
system.tol2bus.respLayer24.utilization            0.0                       # Layer utilization (%)
system.tol2bus.respLayer25.occupancy        205955386                       # Layer occupancy (ticks)
system.tol2bus.respLayer25.utilization            2.0                       # Layer utilization (%)
system.tol2bus.respLayer26.occupancy          1412874                       # Layer occupancy (ticks)
system.tol2bus.respLayer26.utilization            0.0                       # Layer utilization (%)
system.tol2bus.respLayer27.occupancy        184522777                       # Layer occupancy (ticks)
system.tol2bus.respLayer27.utilization            1.8                       # Layer utilization (%)
system.tol2bus.respLayer28.occupancy          1628823                       # Layer occupancy (ticks)
system.tol2bus.respLayer28.utilization            0.0                       # Layer utilization (%)
system.tol2bus.respLayer29.occupancy        194372916                       # Layer occupancy (ticks)
system.tol2bus.respLayer29.utilization            1.9                       # Layer utilization (%)
system.tol2bus.respLayer30.occupancy          1617692                       # Layer occupancy (ticks)
system.tol2bus.respLayer30.utilization            0.0                       # Layer utilization (%)
system.tol2bus.respLayer31.occupancy        191847769                       # Layer occupancy (ticks)
system.tol2bus.respLayer31.utilization            1.9                       # Layer utilization (%)

---------- End Simulation Statistics   ----------
