
---------- Begin Simulation Statistics ----------
sim_seconds                                  0.053055                       # Number of seconds simulated
sim_ticks                                 53054948430                       # Number of ticks simulated
final_tick                                53054948430                       # Number of ticks from beginning of simulation (restored from checkpoints and never reset)
sim_freq                                 1000000000000                       # Frequency of simulated ticks
host_inst_rate                                 301731                       # Simulator instruction rate (inst/s)
host_op_rate                                   301731                       # Simulator op (including micro ops) rate (op/s)
host_tick_rate                               34322536                       # Simulator tick rate (ticks/s)
host_mem_usage                                 693420                       # Number of bytes of host memory used
host_seconds                                  1545.78                       # Real time elapsed on the host
sim_insts                                   466407892                       # Number of instructions simulated
sim_ops                                     466407892                       # Number of ops (including micro ops) simulated
system.voltage_domain.voltage                       1                       # Voltage in Volts
system.clk_domain.clock                          1000                       # Clock period in ticks
system.mem_ctrls.bytes_read::cpu00.inst        138624                       # Number of bytes read from this memory
system.mem_ctrls.bytes_read::cpu00.data       5761344                       # Number of bytes read from this memory
system.mem_ctrls.bytes_read::cpu01.inst         12672                       # Number of bytes read from this memory
system.mem_ctrls.bytes_read::cpu01.data       1043520                       # Number of bytes read from this memory
system.mem_ctrls.bytes_read::cpu02.inst          1216                       # Number of bytes read from this memory
system.mem_ctrls.bytes_read::cpu02.data       1041984                       # Number of bytes read from this memory
system.mem_ctrls.bytes_read::cpu03.inst          1344                       # Number of bytes read from this memory
system.mem_ctrls.bytes_read::cpu03.data       1092160                       # Number of bytes read from this memory
system.mem_ctrls.bytes_read::cpu04.data       1095104                       # Number of bytes read from this memory
system.mem_ctrls.bytes_read::cpu05.inst           512                       # Number of bytes read from this memory
system.mem_ctrls.bytes_read::cpu05.data       1077120                       # Number of bytes read from this memory
system.mem_ctrls.bytes_read::cpu06.inst           768                       # Number of bytes read from this memory
system.mem_ctrls.bytes_read::cpu06.data       1063296                       # Number of bytes read from this memory
system.mem_ctrls.bytes_read::cpu07.inst           128                       # Number of bytes read from this memory
system.mem_ctrls.bytes_read::cpu07.data       1136768                       # Number of bytes read from this memory
system.mem_ctrls.bytes_read::cpu08.inst           128                       # Number of bytes read from this memory
system.mem_ctrls.bytes_read::cpu08.data       1132672                       # Number of bytes read from this memory
system.mem_ctrls.bytes_read::cpu09.inst           256                       # Number of bytes read from this memory
system.mem_ctrls.bytes_read::cpu09.data       1119936                       # Number of bytes read from this memory
system.mem_ctrls.bytes_read::cpu10.inst            64                       # Number of bytes read from this memory
system.mem_ctrls.bytes_read::cpu10.data       1102528                       # Number of bytes read from this memory
system.mem_ctrls.bytes_read::cpu11.inst           640                       # Number of bytes read from this memory
system.mem_ctrls.bytes_read::cpu11.data       1163136                       # Number of bytes read from this memory
system.mem_ctrls.bytes_read::cpu12.inst           256                       # Number of bytes read from this memory
system.mem_ctrls.bytes_read::cpu12.data       1153856                       # Number of bytes read from this memory
system.mem_ctrls.bytes_read::cpu13.inst           256                       # Number of bytes read from this memory
system.mem_ctrls.bytes_read::cpu13.data       1148608                       # Number of bytes read from this memory
system.mem_ctrls.bytes_read::cpu14.inst           192                       # Number of bytes read from this memory
system.mem_ctrls.bytes_read::cpu14.data       1130944                       # Number of bytes read from this memory
system.mem_ctrls.bytes_read::cpu15.inst            64                       # Number of bytes read from this memory
system.mem_ctrls.bytes_read::cpu15.data       1193152                       # Number of bytes read from this memory
system.mem_ctrls.bytes_read::total           22613248                       # Number of bytes read from this memory
system.mem_ctrls.bytes_inst_read::cpu00.inst       138624                       # Number of instructions bytes read from this memory
system.mem_ctrls.bytes_inst_read::cpu01.inst        12672                       # Number of instructions bytes read from this memory
system.mem_ctrls.bytes_inst_read::cpu02.inst         1216                       # Number of instructions bytes read from this memory
system.mem_ctrls.bytes_inst_read::cpu03.inst         1344                       # Number of instructions bytes read from this memory
system.mem_ctrls.bytes_inst_read::cpu05.inst          512                       # Number of instructions bytes read from this memory
system.mem_ctrls.bytes_inst_read::cpu06.inst          768                       # Number of instructions bytes read from this memory
system.mem_ctrls.bytes_inst_read::cpu07.inst          128                       # Number of instructions bytes read from this memory
system.mem_ctrls.bytes_inst_read::cpu08.inst          128                       # Number of instructions bytes read from this memory
system.mem_ctrls.bytes_inst_read::cpu09.inst          256                       # Number of instructions bytes read from this memory
system.mem_ctrls.bytes_inst_read::cpu10.inst           64                       # Number of instructions bytes read from this memory
system.mem_ctrls.bytes_inst_read::cpu11.inst          640                       # Number of instructions bytes read from this memory
system.mem_ctrls.bytes_inst_read::cpu12.inst          256                       # Number of instructions bytes read from this memory
system.mem_ctrls.bytes_inst_read::cpu13.inst          256                       # Number of instructions bytes read from this memory
system.mem_ctrls.bytes_inst_read::cpu14.inst          192                       # Number of instructions bytes read from this memory
system.mem_ctrls.bytes_inst_read::cpu15.inst           64                       # Number of instructions bytes read from this memory
system.mem_ctrls.bytes_inst_read::total        157120                       # Number of instructions bytes read from this memory
system.mem_ctrls.bytes_written::writebacks     16967552                       # Number of bytes written to this memory
system.mem_ctrls.bytes_written::total        16967552                       # Number of bytes written to this memory
system.mem_ctrls.num_reads::cpu00.inst           2166                       # Number of read requests responded to by this memory
system.mem_ctrls.num_reads::cpu00.data          90021                       # Number of read requests responded to by this memory
system.mem_ctrls.num_reads::cpu01.inst            198                       # Number of read requests responded to by this memory
system.mem_ctrls.num_reads::cpu01.data          16305                       # Number of read requests responded to by this memory
system.mem_ctrls.num_reads::cpu02.inst             19                       # Number of read requests responded to by this memory
system.mem_ctrls.num_reads::cpu02.data          16281                       # Number of read requests responded to by this memory
system.mem_ctrls.num_reads::cpu03.inst             21                       # Number of read requests responded to by this memory
system.mem_ctrls.num_reads::cpu03.data          17065                       # Number of read requests responded to by this memory
system.mem_ctrls.num_reads::cpu04.data          17111                       # Number of read requests responded to by this memory
system.mem_ctrls.num_reads::cpu05.inst              8                       # Number of read requests responded to by this memory
system.mem_ctrls.num_reads::cpu05.data          16830                       # Number of read requests responded to by this memory
system.mem_ctrls.num_reads::cpu06.inst             12                       # Number of read requests responded to by this memory
system.mem_ctrls.num_reads::cpu06.data          16614                       # Number of read requests responded to by this memory
system.mem_ctrls.num_reads::cpu07.inst              2                       # Number of read requests responded to by this memory
system.mem_ctrls.num_reads::cpu07.data          17762                       # Number of read requests responded to by this memory
system.mem_ctrls.num_reads::cpu08.inst              2                       # Number of read requests responded to by this memory
system.mem_ctrls.num_reads::cpu08.data          17698                       # Number of read requests responded to by this memory
system.mem_ctrls.num_reads::cpu09.inst              4                       # Number of read requests responded to by this memory
system.mem_ctrls.num_reads::cpu09.data          17499                       # Number of read requests responded to by this memory
system.mem_ctrls.num_reads::cpu10.inst              1                       # Number of read requests responded to by this memory
system.mem_ctrls.num_reads::cpu10.data          17227                       # Number of read requests responded to by this memory
system.mem_ctrls.num_reads::cpu11.inst             10                       # Number of read requests responded to by this memory
system.mem_ctrls.num_reads::cpu11.data          18174                       # Number of read requests responded to by this memory
system.mem_ctrls.num_reads::cpu12.inst              4                       # Number of read requests responded to by this memory
system.mem_ctrls.num_reads::cpu12.data          18029                       # Number of read requests responded to by this memory
system.mem_ctrls.num_reads::cpu13.inst              4                       # Number of read requests responded to by this memory
system.mem_ctrls.num_reads::cpu13.data          17947                       # Number of read requests responded to by this memory
system.mem_ctrls.num_reads::cpu14.inst              3                       # Number of read requests responded to by this memory
system.mem_ctrls.num_reads::cpu14.data          17671                       # Number of read requests responded to by this memory
system.mem_ctrls.num_reads::cpu15.inst              1                       # Number of read requests responded to by this memory
system.mem_ctrls.num_reads::cpu15.data          18643                       # Number of read requests responded to by this memory
system.mem_ctrls.num_reads::total              353332                       # Number of read requests responded to by this memory
system.mem_ctrls.num_writes::writebacks        265118                       # Number of write requests responded to by this memory
system.mem_ctrls.num_writes::total             265118                       # Number of write requests responded to by this memory
system.mem_ctrls.bw_read::cpu00.inst          2612838                       # Total read bandwidth from this memory (bytes/s)
system.mem_ctrls.bw_read::cpu00.data        108592020                       # Total read bandwidth from this memory (bytes/s)
system.mem_ctrls.bw_read::cpu01.inst           238847                       # Total read bandwidth from this memory (bytes/s)
system.mem_ctrls.bw_read::cpu01.data         19668665                       # Total read bandwidth from this memory (bytes/s)
system.mem_ctrls.bw_read::cpu02.inst            22920                       # Total read bandwidth from this memory (bytes/s)
system.mem_ctrls.bw_read::cpu02.data         19639714                       # Total read bandwidth from this memory (bytes/s)
system.mem_ctrls.bw_read::cpu03.inst            25332                       # Total read bandwidth from this memory (bytes/s)
system.mem_ctrls.bw_read::cpu03.data         20585450                       # Total read bandwidth from this memory (bytes/s)
system.mem_ctrls.bw_read::cpu04.data         20640940                       # Total read bandwidth from this memory (bytes/s)
system.mem_ctrls.bw_read::cpu05.inst             9650                       # Total read bandwidth from this memory (bytes/s)
system.mem_ctrls.bw_read::cpu05.data         20301971                       # Total read bandwidth from this memory (bytes/s)
system.mem_ctrls.bw_read::cpu06.inst            14476                       # Total read bandwidth from this memory (bytes/s)
system.mem_ctrls.bw_read::cpu06.data         20041410                       # Total read bandwidth from this memory (bytes/s)
system.mem_ctrls.bw_read::cpu07.inst             2413                       # Total read bandwidth from this memory (bytes/s)
system.mem_ctrls.bw_read::cpu07.data         21426239                       # Total read bandwidth from this memory (bytes/s)
system.mem_ctrls.bw_read::cpu08.inst             2413                       # Total read bandwidth from this memory (bytes/s)
system.mem_ctrls.bw_read::cpu08.data         21349036                       # Total read bandwidth from this memory (bytes/s)
system.mem_ctrls.bw_read::cpu09.inst             4825                       # Total read bandwidth from this memory (bytes/s)
system.mem_ctrls.bw_read::cpu09.data         21108983                       # Total read bandwidth from this memory (bytes/s)
system.mem_ctrls.bw_read::cpu10.inst             1206                       # Total read bandwidth from this memory (bytes/s)
system.mem_ctrls.bw_read::cpu10.data         20780870                       # Total read bandwidth from this memory (bytes/s)
system.mem_ctrls.bw_read::cpu11.inst            12063                       # Total read bandwidth from this memory (bytes/s)
system.mem_ctrls.bw_read::cpu11.data         21923233                       # Total read bandwidth from this memory (bytes/s)
system.mem_ctrls.bw_read::cpu12.inst             4825                       # Total read bandwidth from this memory (bytes/s)
system.mem_ctrls.bw_read::cpu12.data         21748320                       # Total read bandwidth from this memory (bytes/s)
system.mem_ctrls.bw_read::cpu13.inst             4825                       # Total read bandwidth from this memory (bytes/s)
system.mem_ctrls.bw_read::cpu13.data         21649404                       # Total read bandwidth from this memory (bytes/s)
system.mem_ctrls.bw_read::cpu14.inst             3619                       # Total read bandwidth from this memory (bytes/s)
system.mem_ctrls.bw_read::cpu14.data         21316466                       # Total read bandwidth from this memory (bytes/s)
system.mem_ctrls.bw_read::cpu15.inst             1206                       # Total read bandwidth from this memory (bytes/s)
system.mem_ctrls.bw_read::cpu15.data         22488986                       # Total read bandwidth from this memory (bytes/s)
system.mem_ctrls.bw_read::total             426223164                       # Total read bandwidth from this memory (bytes/s)
system.mem_ctrls.bw_inst_read::cpu00.inst      2612838                       # Instruction read bandwidth from this memory (bytes/s)
system.mem_ctrls.bw_inst_read::cpu01.inst       238847                       # Instruction read bandwidth from this memory (bytes/s)
system.mem_ctrls.bw_inst_read::cpu02.inst        22920                       # Instruction read bandwidth from this memory (bytes/s)
system.mem_ctrls.bw_inst_read::cpu03.inst        25332                       # Instruction read bandwidth from this memory (bytes/s)
system.mem_ctrls.bw_inst_read::cpu05.inst         9650                       # Instruction read bandwidth from this memory (bytes/s)
system.mem_ctrls.bw_inst_read::cpu06.inst        14476                       # Instruction read bandwidth from this memory (bytes/s)
system.mem_ctrls.bw_inst_read::cpu07.inst         2413                       # Instruction read bandwidth from this memory (bytes/s)
system.mem_ctrls.bw_inst_read::cpu08.inst         2413                       # Instruction read bandwidth from this memory (bytes/s)
system.mem_ctrls.bw_inst_read::cpu09.inst         4825                       # Instruction read bandwidth from this memory (bytes/s)
system.mem_ctrls.bw_inst_read::cpu10.inst         1206                       # Instruction read bandwidth from this memory (bytes/s)
system.mem_ctrls.bw_inst_read::cpu11.inst        12063                       # Instruction read bandwidth from this memory (bytes/s)
system.mem_ctrls.bw_inst_read::cpu12.inst         4825                       # Instruction read bandwidth from this memory (bytes/s)
system.mem_ctrls.bw_inst_read::cpu13.inst         4825                       # Instruction read bandwidth from this memory (bytes/s)
system.mem_ctrls.bw_inst_read::cpu14.inst         3619                       # Instruction read bandwidth from this memory (bytes/s)
system.mem_ctrls.bw_inst_read::cpu15.inst         1206                       # Instruction read bandwidth from this memory (bytes/s)
system.mem_ctrls.bw_inst_read::total          2961458                       # Instruction read bandwidth from this memory (bytes/s)
system.mem_ctrls.bw_write::writebacks       319810922                       # Write bandwidth from this memory (bytes/s)
system.mem_ctrls.bw_write::total            319810922                       # Write bandwidth from this memory (bytes/s)
system.mem_ctrls.bw_total::writebacks       319810922                       # Total bandwidth to/from this memory (bytes/s)
system.mem_ctrls.bw_total::cpu00.inst         2612838                       # Total bandwidth to/from this memory (bytes/s)
system.mem_ctrls.bw_total::cpu00.data       108592020                       # Total bandwidth to/from this memory (bytes/s)
system.mem_ctrls.bw_total::cpu01.inst          238847                       # Total bandwidth to/from this memory (bytes/s)
system.mem_ctrls.bw_total::cpu01.data        19668665                       # Total bandwidth to/from this memory (bytes/s)
system.mem_ctrls.bw_total::cpu02.inst           22920                       # Total bandwidth to/from this memory (bytes/s)
system.mem_ctrls.bw_total::cpu02.data        19639714                       # Total bandwidth to/from this memory (bytes/s)
system.mem_ctrls.bw_total::cpu03.inst           25332                       # Total bandwidth to/from this memory (bytes/s)
system.mem_ctrls.bw_total::cpu03.data        20585450                       # Total bandwidth to/from this memory (bytes/s)
system.mem_ctrls.bw_total::cpu04.data        20640940                       # Total bandwidth to/from this memory (bytes/s)
system.mem_ctrls.bw_total::cpu05.inst            9650                       # Total bandwidth to/from this memory (bytes/s)
system.mem_ctrls.bw_total::cpu05.data        20301971                       # Total bandwidth to/from this memory (bytes/s)
system.mem_ctrls.bw_total::cpu06.inst           14476                       # Total bandwidth to/from this memory (bytes/s)
system.mem_ctrls.bw_total::cpu06.data        20041410                       # Total bandwidth to/from this memory (bytes/s)
system.mem_ctrls.bw_total::cpu07.inst            2413                       # Total bandwidth to/from this memory (bytes/s)
system.mem_ctrls.bw_total::cpu07.data        21426239                       # Total bandwidth to/from this memory (bytes/s)
system.mem_ctrls.bw_total::cpu08.inst            2413                       # Total bandwidth to/from this memory (bytes/s)
system.mem_ctrls.bw_total::cpu08.data        21349036                       # Total bandwidth to/from this memory (bytes/s)
system.mem_ctrls.bw_total::cpu09.inst            4825                       # Total bandwidth to/from this memory (bytes/s)
system.mem_ctrls.bw_total::cpu09.data        21108983                       # Total bandwidth to/from this memory (bytes/s)
system.mem_ctrls.bw_total::cpu10.inst            1206                       # Total bandwidth to/from this memory (bytes/s)
system.mem_ctrls.bw_total::cpu10.data        20780870                       # Total bandwidth to/from this memory (bytes/s)
system.mem_ctrls.bw_total::cpu11.inst           12063                       # Total bandwidth to/from this memory (bytes/s)
system.mem_ctrls.bw_total::cpu11.data        21923233                       # Total bandwidth to/from this memory (bytes/s)
system.mem_ctrls.bw_total::cpu12.inst            4825                       # Total bandwidth to/from this memory (bytes/s)
system.mem_ctrls.bw_total::cpu12.data        21748320                       # Total bandwidth to/from this memory (bytes/s)
system.mem_ctrls.bw_total::cpu13.inst            4825                       # Total bandwidth to/from this memory (bytes/s)
system.mem_ctrls.bw_total::cpu13.data        21649404                       # Total bandwidth to/from this memory (bytes/s)
system.mem_ctrls.bw_total::cpu14.inst            3619                       # Total bandwidth to/from this memory (bytes/s)
system.mem_ctrls.bw_total::cpu14.data        21316466                       # Total bandwidth to/from this memory (bytes/s)
system.mem_ctrls.bw_total::cpu15.inst            1206                       # Total bandwidth to/from this memory (bytes/s)
system.mem_ctrls.bw_total::cpu15.data        22488986                       # Total bandwidth to/from this memory (bytes/s)
system.mem_ctrls.bw_total::total            746034087                       # Total bandwidth to/from this memory (bytes/s)
system.cpu00.branchPred.lookups              16413110                       # Number of BP lookups
system.cpu00.branchPred.condPredicted         9953769                       # Number of conditional branches predicted
system.cpu00.branchPred.condIncorrect           22882                       # Number of conditional branches incorrect
system.cpu00.branchPred.BTBLookups           11482537                       # Number of BTB lookups
system.cpu00.branchPred.BTBHits               8320604                       # Number of BTB hits
system.cpu00.branchPred.BTBCorrect                  0                       # Number of correct BTB predictions (this stat may not work properly.
system.cpu00.branchPred.BTBHitPct           72.463115                       # BTB Hit Percentage
system.cpu00.branchPred.usedRAS               3224414                       # Number of times the RAS was used to get a target.
system.cpu00.branchPred.RASInCorrect               90                       # Number of incorrect RAS predictions.
system.cpu00.branchPred.indirectLookups        265154                       # Number of indirect predictor lookups.
system.cpu00.branchPred.indirectHits           264286                       # Number of indirect target hits.
system.cpu00.branchPred.indirectMisses            868                       # Number of indirect misses.
system.cpu00.branchPredindirectMispredicted          262                       # Number of mispredicted indirect branches.
system.cpu_voltage_domain.voltage                   1                       # Voltage in Volts
system.cpu_clk_domain.clock                      1161                       # Clock period in ticks
system.cpu00.dtb.fetch_hits                         0                       # ITB hits
system.cpu00.dtb.fetch_misses                       0                       # ITB misses
system.cpu00.dtb.fetch_acv                          0                       # ITB acv
system.cpu00.dtb.fetch_accesses                     0                       # ITB accesses
system.cpu00.dtb.read_hits                   21250619                       # DTB read hits
system.cpu00.dtb.read_misses                     5604                       # DTB read misses
system.cpu00.dtb.read_acv                           1                       # DTB read access violations
system.cpu00.dtb.read_accesses               21256223                       # DTB read accesses
system.cpu00.dtb.write_hits                   7525710                       # DTB write hits
system.cpu00.dtb.write_misses                    2213                       # DTB write misses
system.cpu00.dtb.write_acv                          0                       # DTB write access violations
system.cpu00.dtb.write_accesses               7527923                       # DTB write accesses
system.cpu00.dtb.data_hits                   28776329                       # DTB hits
system.cpu00.dtb.data_misses                     7817                       # DTB misses
system.cpu00.dtb.data_acv                           1                       # DTB access violations
system.cpu00.dtb.data_accesses               28784146                       # DTB accesses
system.cpu00.itb.fetch_hits                  15827185                       # ITB hits
system.cpu00.itb.fetch_misses                     176                       # ITB misses
system.cpu00.itb.fetch_acv                          0                       # ITB acv
system.cpu00.itb.fetch_accesses              15827361                       # ITB accesses
system.cpu00.itb.read_hits                          0                       # DTB read hits
system.cpu00.itb.read_misses                        0                       # DTB read misses
system.cpu00.itb.read_acv                           0                       # DTB read access violations
system.cpu00.itb.read_accesses                      0                       # DTB read accesses
system.cpu00.itb.write_hits                         0                       # DTB write hits
system.cpu00.itb.write_misses                       0                       # DTB write misses
system.cpu00.itb.write_acv                          0                       # DTB write access violations
system.cpu00.itb.write_accesses                     0                       # DTB write accesses
system.cpu00.itb.data_hits                          0                       # DTB hits
system.cpu00.itb.data_misses                        0                       # DTB misses
system.cpu00.itb.data_acv                           0                       # DTB access violations
system.cpu00.itb.data_accesses                      0                       # DTB accesses
system.cpu00.workload.num_syscalls               5349                       # Number of system calls
system.cpu00.numCycles                       44771113                       # number of cpu cycles simulated
system.cpu00.numWorkItemsStarted                    0                       # number of work items this cpu started
system.cpu00.numWorkItemsCompleted                  0                       # number of work items this cpu completed
system.cpu00.fetch.icacheStallCycles           101946                       # Number of cycles fetch is stalled on an Icache miss
system.cpu00.fetch.Insts                    122360905                       # Number of instructions fetch has processed
system.cpu00.fetch.Branches                  16413110                       # Number of branches that fetch encountered
system.cpu00.fetch.predictedBranches         11809304                       # Number of branches that fetch has predicted taken
system.cpu00.fetch.Cycles                    44402643                       # Number of cycles fetch has run and was not squashing or blocked
system.cpu00.fetch.SquashCycles                 52980                       # Number of cycles fetch has spent squashing
system.cpu00.fetch.MiscStallCycles                129                       # Number of cycles fetch has spent waiting on interrupts, or bad addresses, or out of MSHRs
system.cpu00.fetch.PendingTrapStallCycles         6656                       # Number of stall cycles due to pending traps
system.cpu00.fetch.IcacheWaitRetryStallCycles           37                       # Number of stall cycles due to full MSHR
system.cpu00.fetch.CacheLines                15827185                       # Number of cache lines fetched
system.cpu00.fetch.IcacheSquashes                2530                       # Number of outstanding Icache misses that were squashed
system.cpu00.fetch.rateDist::samples         44537901                       # Number of instructions fetched each cycle (Total)
system.cpu00.fetch.rateDist::mean            2.747343                       # Number of instructions fetched each cycle (Total)
system.cpu00.fetch.rateDist::stdev           3.096383                       # Number of instructions fetched each cycle (Total)
system.cpu00.fetch.rateDist::underflows             0      0.00%      0.00% # Number of instructions fetched each cycle (Total)
system.cpu00.fetch.rateDist::0               21375406     47.99%     47.99% # Number of instructions fetched each cycle (Total)
system.cpu00.fetch.rateDist::1                 882235      1.98%     49.97% # Number of instructions fetched each cycle (Total)
system.cpu00.fetch.rateDist::2                2362934      5.31%     55.28% # Number of instructions fetched each cycle (Total)
system.cpu00.fetch.rateDist::3                2723086      6.11%     61.39% # Number of instructions fetched each cycle (Total)
system.cpu00.fetch.rateDist::4                3575940      8.03%     69.42% # Number of instructions fetched each cycle (Total)
system.cpu00.fetch.rateDist::5                1905143      4.28%     73.70% # Number of instructions fetched each cycle (Total)
system.cpu00.fetch.rateDist::6                4059430      9.11%     82.82% # Number of instructions fetched each cycle (Total)
system.cpu00.fetch.rateDist::7                 832327      1.87%     84.68% # Number of instructions fetched each cycle (Total)
system.cpu00.fetch.rateDist::8                6821400     15.32%    100.00% # Number of instructions fetched each cycle (Total)
system.cpu00.fetch.rateDist::overflows              0      0.00%    100.00% # Number of instructions fetched each cycle (Total)
system.cpu00.fetch.rateDist::min_value              0                       # Number of instructions fetched each cycle (Total)
system.cpu00.fetch.rateDist::max_value              8                       # Number of instructions fetched each cycle (Total)
system.cpu00.fetch.rateDist::total           44537901                       # Number of instructions fetched each cycle (Total)
system.cpu00.fetch.branchRate                0.366600                       # Number of branch fetches per cycle
system.cpu00.fetch.rate                      2.733032                       # Number of inst fetches per cycle
system.cpu00.decode.IdleCycles                1149251                       # Number of cycles decode is idle
system.cpu00.decode.BlockedCycles            24199358                       # Number of cycles decode is blocked
system.cpu00.decode.RunCycles                17295782                       # Number of cycles decode is running
system.cpu00.decode.UnblockCycles             1868747                       # Number of cycles decode is unblocking
system.cpu00.decode.SquashCycles                24763                       # Number of cycles decode is squashing
system.cpu00.decode.BranchResolved            2964900                       # Number of times decode resolved a branch
system.cpu00.decode.BranchMispred                1760                       # Number of times decode detected a branch misprediction
system.cpu00.decode.DecodedInsts            122024174                       # Number of instructions handled by decode
system.cpu00.decode.SquashedInsts                8009                       # Number of squashed instructions handled by decode
system.cpu00.rename.SquashCycles                24763                       # Number of cycles rename is squashing
system.cpu00.rename.IdleCycles                2210490                       # Number of cycles rename is idle
system.cpu00.rename.BlockCycles               5969650                       # Number of cycles rename is blocking
system.cpu00.rename.serializeStallCycles     13967435                       # count of cycles rename stalled for serializing inst
system.cpu00.rename.RunCycles                18049086                       # Number of cycles rename is running
system.cpu00.rename.UnblockCycles             4316477                       # Number of cycles rename is unblocking
system.cpu00.rename.RenamedInsts            121862151                       # Number of instructions processed by rename
system.cpu00.rename.ROBFullEvents               73444                       # Number of times rename has blocked due to ROB full
system.cpu00.rename.IQFullEvents              1085277                       # Number of times rename has blocked due to IQ full
system.cpu00.rename.LQFullEvents              1916777                       # Number of times rename has blocked due to LQ full
system.cpu00.rename.SQFullEvents               216842                       # Number of times rename has blocked due to SQ full
system.cpu00.rename.RenamedOperands          94715102                       # Number of destination operands rename has renamed
system.cpu00.rename.RenameLookups           167482334                       # Number of register rename lookups that rename has made
system.cpu00.rename.int_rename_lookups      148670832                       # Number of integer rename lookups
system.cpu00.rename.fp_rename_lookups        18549100                       # Number of floating rename lookups
system.cpu00.rename.CommittedMaps            93904202                       # Number of HB maps that are committed
system.cpu00.rename.UndoneMaps                 810900                       # Number of HB maps that are undone due to squashing
system.cpu00.rename.serializingInsts           265675                       # count of serializing insts renamed
system.cpu00.rename.tempSerializingInsts         2060                       # count of temporary serializing insts renamed
system.cpu00.rename.skidInsts                11905457                       # count of insts added to the skid buffer
system.cpu00.memDep0.insertedLoads           21202006                       # Number of loads inserted to the mem dependence unit.
system.cpu00.memDep0.insertedStores           7540519                       # Number of stores inserted to the mem dependence unit.
system.cpu00.memDep0.conflictingLoads         1506259                       # Number of conflicting loads.
system.cpu00.memDep0.conflictingStores         436244                       # Number of conflicting stores.
system.cpu00.iq.iqInstsAdded                116767680                       # Number of instructions added to the IQ (excludes non-spec)
system.cpu00.iq.iqNonSpecInstsAdded              3247                       # Number of non-speculative instructions added to the IQ
system.cpu00.iq.iqInstsIssued               116732852                       # Number of instructions issued
system.cpu00.iq.iqSquashedInstsIssued           19382                       # Number of squashed instructions issued
system.cpu00.iq.iqSquashedInstsExamined        755551                       # Number of squashed instructions iterated over during squash; mainly for profiling
system.cpu00.iq.iqSquashedOperandsExamined       306794                       # Number of squashed operands that are examined and possibly removed from graph
system.cpu00.iq.iqSquashedNonSpecRemoved          469                       # Number of squashed non-spec instructions that were removed
system.cpu00.iq.issued_per_cycle::samples     44537901                       # Number of insts issued each cycle
system.cpu00.iq.issued_per_cycle::mean       2.620978                       # Number of insts issued each cycle
system.cpu00.iq.issued_per_cycle::stdev      2.670731                       # Number of insts issued each cycle
system.cpu00.iq.issued_per_cycle::underflows            0      0.00%      0.00% # Number of insts issued each cycle
system.cpu00.iq.issued_per_cycle::0          18964136     42.58%     42.58% # Number of insts issued each cycle
system.cpu00.iq.issued_per_cycle::1           1790308      4.02%     46.60% # Number of insts issued each cycle
system.cpu00.iq.issued_per_cycle::2           1926345      4.33%     50.92% # Number of insts issued each cycle
system.cpu00.iq.issued_per_cycle::3           3349909      7.52%     58.45% # Number of insts issued each cycle
system.cpu00.iq.issued_per_cycle::4           5740784     12.89%     71.34% # Number of insts issued each cycle
system.cpu00.iq.issued_per_cycle::5           4565480     10.25%     81.59% # Number of insts issued each cycle
system.cpu00.iq.issued_per_cycle::6           4254356      9.55%     91.14% # Number of insts issued each cycle
system.cpu00.iq.issued_per_cycle::7           1849209      4.15%     95.29% # Number of insts issued each cycle
system.cpu00.iq.issued_per_cycle::8           2097374      4.71%    100.00% # Number of insts issued each cycle
system.cpu00.iq.issued_per_cycle::overflows            0      0.00%    100.00% # Number of insts issued each cycle
system.cpu00.iq.issued_per_cycle::min_value            0                       # Number of insts issued each cycle
system.cpu00.iq.issued_per_cycle::max_value            8                       # Number of insts issued each cycle
system.cpu00.iq.issued_per_cycle::total      44537901                       # Number of insts issued each cycle
system.cpu00.iq.fu_full::No_OpClass                 0      0.00%      0.00% # attempts to use FU when none available
system.cpu00.iq.fu_full::IntAlu               1070037     33.42%     33.42% # attempts to use FU when none available
system.cpu00.iq.fu_full::IntMult               524327     16.37%     49.79% # attempts to use FU when none available
system.cpu00.iq.fu_full::IntDiv                     0      0.00%     49.79% # attempts to use FU when none available
system.cpu00.iq.fu_full::FloatAdd               31821      0.99%     50.79% # attempts to use FU when none available
system.cpu00.iq.fu_full::FloatCmp                   0      0.00%     50.79% # attempts to use FU when none available
system.cpu00.iq.fu_full::FloatCvt                   0      0.00%     50.79% # attempts to use FU when none available
system.cpu00.iq.fu_full::FloatMult             652382     20.37%     71.16% # attempts to use FU when none available
system.cpu00.iq.fu_full::FloatDiv                6993      0.22%     71.38% # attempts to use FU when none available
system.cpu00.iq.fu_full::FloatSqrt                  0      0.00%     71.38% # attempts to use FU when none available
system.cpu00.iq.fu_full::SimdAdd                    0      0.00%     71.38% # attempts to use FU when none available
system.cpu00.iq.fu_full::SimdAddAcc                 0      0.00%     71.38% # attempts to use FU when none available
system.cpu00.iq.fu_full::SimdAlu                    0      0.00%     71.38% # attempts to use FU when none available
system.cpu00.iq.fu_full::SimdCmp                    0      0.00%     71.38% # attempts to use FU when none available
system.cpu00.iq.fu_full::SimdCvt                    0      0.00%     71.38% # attempts to use FU when none available
system.cpu00.iq.fu_full::SimdMisc                   0      0.00%     71.38% # attempts to use FU when none available
system.cpu00.iq.fu_full::SimdMult                   0      0.00%     71.38% # attempts to use FU when none available
system.cpu00.iq.fu_full::SimdMultAcc                0      0.00%     71.38% # attempts to use FU when none available
system.cpu00.iq.fu_full::SimdShift                  0      0.00%     71.38% # attempts to use FU when none available
system.cpu00.iq.fu_full::SimdShiftAcc               0      0.00%     71.38% # attempts to use FU when none available
system.cpu00.iq.fu_full::SimdSqrt                   0      0.00%     71.38% # attempts to use FU when none available
system.cpu00.iq.fu_full::SimdFloatAdd               0      0.00%     71.38% # attempts to use FU when none available
system.cpu00.iq.fu_full::SimdFloatAlu               0      0.00%     71.38% # attempts to use FU when none available
system.cpu00.iq.fu_full::SimdFloatCmp               0      0.00%     71.38% # attempts to use FU when none available
system.cpu00.iq.fu_full::SimdFloatCvt               0      0.00%     71.38% # attempts to use FU when none available
system.cpu00.iq.fu_full::SimdFloatDiv               0      0.00%     71.38% # attempts to use FU when none available
system.cpu00.iq.fu_full::SimdFloatMisc              0      0.00%     71.38% # attempts to use FU when none available
system.cpu00.iq.fu_full::SimdFloatMult              0      0.00%     71.38% # attempts to use FU when none available
system.cpu00.iq.fu_full::SimdFloatMultAcc            0      0.00%     71.38% # attempts to use FU when none available
system.cpu00.iq.fu_full::SimdFloatSqrt              0      0.00%     71.38% # attempts to use FU when none available
system.cpu00.iq.fu_full::MemRead               906599     28.31%     99.69% # attempts to use FU when none available
system.cpu00.iq.fu_full::MemWrite                9904      0.31%    100.00% # attempts to use FU when none available
system.cpu00.iq.fu_full::IprAccess                  0      0.00%    100.00% # attempts to use FU when none available
system.cpu00.iq.fu_full::InstPrefetch               0      0.00%    100.00% # attempts to use FU when none available
system.cpu00.iq.FU_type_0::No_OpClass               0      0.00%      0.00% # Type of FU issued
system.cpu00.iq.FU_type_0::IntAlu            77296552     66.22%     66.22% # Type of FU issued
system.cpu00.iq.FU_type_0::IntMult            2395133      2.05%     68.27% # Type of FU issued
system.cpu00.iq.FU_type_0::IntDiv                   0      0.00%     68.27% # Type of FU issued
system.cpu00.iq.FU_type_0::FloatAdd           4750282      4.07%     72.34% # Type of FU issued
system.cpu00.iq.FU_type_0::FloatCmp                30      0.00%     72.34% # Type of FU issued
system.cpu00.iq.FU_type_0::FloatCvt                 0      0.00%     72.34% # Type of FU issued
system.cpu00.iq.FU_type_0::FloatMult          3460724      2.96%     75.30% # Type of FU issued
system.cpu00.iq.FU_type_0::FloatDiv              8394      0.01%     75.31% # Type of FU issued
system.cpu00.iq.FU_type_0::FloatSqrt                0      0.00%     75.31% # Type of FU issued
system.cpu00.iq.FU_type_0::SimdAdd                  0      0.00%     75.31% # Type of FU issued
system.cpu00.iq.FU_type_0::SimdAddAcc               0      0.00%     75.31% # Type of FU issued
system.cpu00.iq.FU_type_0::SimdAlu                  0      0.00%     75.31% # Type of FU issued
system.cpu00.iq.FU_type_0::SimdCmp                  0      0.00%     75.31% # Type of FU issued
system.cpu00.iq.FU_type_0::SimdCvt                  0      0.00%     75.31% # Type of FU issued
system.cpu00.iq.FU_type_0::SimdMisc                 0      0.00%     75.31% # Type of FU issued
system.cpu00.iq.FU_type_0::SimdMult                 0      0.00%     75.31% # Type of FU issued
system.cpu00.iq.FU_type_0::SimdMultAcc              0      0.00%     75.31% # Type of FU issued
system.cpu00.iq.FU_type_0::SimdShift                0      0.00%     75.31% # Type of FU issued
system.cpu00.iq.FU_type_0::SimdShiftAcc             0      0.00%     75.31% # Type of FU issued
system.cpu00.iq.FU_type_0::SimdSqrt                 0      0.00%     75.31% # Type of FU issued
system.cpu00.iq.FU_type_0::SimdFloatAdd             0      0.00%     75.31% # Type of FU issued
system.cpu00.iq.FU_type_0::SimdFloatAlu             0      0.00%     75.31% # Type of FU issued
system.cpu00.iq.FU_type_0::SimdFloatCmp             0      0.00%     75.31% # Type of FU issued
system.cpu00.iq.FU_type_0::SimdFloatCvt             0      0.00%     75.31% # Type of FU issued
system.cpu00.iq.FU_type_0::SimdFloatDiv             0      0.00%     75.31% # Type of FU issued
system.cpu00.iq.FU_type_0::SimdFloatMisc            0      0.00%     75.31% # Type of FU issued
system.cpu00.iq.FU_type_0::SimdFloatMult            0      0.00%     75.31% # Type of FU issued
system.cpu00.iq.FU_type_0::SimdFloatMultAcc            0      0.00%     75.31% # Type of FU issued
system.cpu00.iq.FU_type_0::SimdFloatSqrt            0      0.00%     75.31% # Type of FU issued
system.cpu00.iq.FU_type_0::MemRead           21292076     18.24%     93.55% # Type of FU issued
system.cpu00.iq.FU_type_0::MemWrite           7529661      6.45%    100.00% # Type of FU issued
system.cpu00.iq.FU_type_0::IprAccess                0      0.00%    100.00% # Type of FU issued
system.cpu00.iq.FU_type_0::InstPrefetch             0      0.00%    100.00% # Type of FU issued
system.cpu00.iq.FU_type_0::total            116732852                       # Type of FU issued
system.cpu00.iq.rate                         2.607325                       # Inst issue rate
system.cpu00.iq.fu_busy_cnt                   3202063                       # FU busy when requested
system.cpu00.iq.fu_busy_rate                 0.027431                       # FU busy rate (busy events/executed inst)
system.cpu00.iq.int_inst_queue_reads        240858923                       # Number of integer instruction queue reads
system.cpu00.iq.int_inst_queue_writes        97932143                       # Number of integer instruction queue writes
system.cpu00.iq.int_inst_queue_wakeup_accesses     97139602                       # Number of integer instruction queue wakeup accesses
system.cpu00.iq.fp_inst_queue_reads          40366127                       # Number of floating instruction queue reads
system.cpu00.iq.fp_inst_queue_writes         19595252                       # Number of floating instruction queue writes
system.cpu00.iq.fp_inst_queue_wakeup_accesses     19363991                       # Number of floating instruction queue wakeup accesses
system.cpu00.iq.int_alu_accesses             99095766                       # Number of integer alu accesses
system.cpu00.iq.fp_alu_accesses              20839149                       # Number of floating point alu accesses
system.cpu00.iew.lsq.thread0.forwLoads        1084499                       # Number of loads that had data forwarded from stores
system.cpu00.iew.lsq.thread0.invAddrLoads            0                       # Number of loads ignored due to an invalid address
system.cpu00.iew.lsq.thread0.squashedLoads       144616                       # Number of loads squashed
system.cpu00.iew.lsq.thread0.ignoredResponses           62                       # Number of memory responses ignored because the instruction is squashed
system.cpu00.iew.lsq.thread0.memOrderViolation          928                       # Number of memory ordering violations
system.cpu00.iew.lsq.thread0.squashedStores        32599                       # Number of stores squashed
system.cpu00.iew.lsq.thread0.invAddrSwpfs            0                       # Number of software prefetches ignored due to an invalid address
system.cpu00.iew.lsq.thread0.blockedLoads            0                       # Number of blocked loads due to partial load-store forwarding
system.cpu00.iew.lsq.thread0.rescheduledLoads          226                       # Number of loads that were rescheduled
system.cpu00.iew.lsq.thread0.cacheBlocked       126845                       # Number of times an access to memory failed due to the cache being blocked
system.cpu00.iew.iewIdleCycles                      0                       # Number of cycles IEW is idle
system.cpu00.iew.iewSquashCycles                24763                       # Number of cycles IEW is squashing
system.cpu00.iew.iewBlockCycles                301379                       # Number of cycles IEW is blocking
system.cpu00.iew.iewUnblockCycles              348076                       # Number of cycles IEW is unblocking
system.cpu00.iew.iewDispatchedInsts         121591776                       # Number of instructions dispatched to IQ
system.cpu00.iew.iewDispSquashedInsts            5166                       # Number of squashed instructions skipped by dispatch
system.cpu00.iew.iewDispLoadInsts            21202006                       # Number of dispatched load instructions
system.cpu00.iew.iewDispStoreInsts            7540519                       # Number of dispatched store instructions
system.cpu00.iew.iewDispNonSpecInsts             1958                       # Number of dispatched non-speculative instructions
system.cpu00.iew.iewIQFullEvents                21637                       # Number of times the IQ has become full, causing a stall
system.cpu00.iew.iewLSQFullEvents              309255                       # Number of times the LSQ has become full, causing a stall
system.cpu00.iew.memOrderViolationEvents          928                       # Number of memory order violations
system.cpu00.iew.predictedTakenIncorrect        17920                       # Number of branches that were predicted taken incorrectly
system.cpu00.iew.predictedNotTakenIncorrect         4102                       # Number of branches that were predicted not taken incorrectly
system.cpu00.iew.branchMispredicts              22022                       # Number of branch mispredicts detected at execute
system.cpu00.iew.iewExecutedInsts           116654643                       # Number of executed instructions
system.cpu00.iew.iewExecLoadInsts            21256242                       # Number of load instructions executed
system.cpu00.iew.iewExecSquashedInsts           78209                       # Number of squashed instructions skipped in execute
system.cpu00.iew.exec_swp                           0                       # number of swp insts executed
system.cpu00.iew.exec_nop                     4820849                       # number of nop insts executed
system.cpu00.iew.exec_refs                   28784171                       # number of memory reference insts executed
system.cpu00.iew.exec_branches               16317569                       # Number of branches executed
system.cpu00.iew.exec_stores                  7527929                       # Number of stores executed
system.cpu00.iew.exec_rate                   2.605578                       # Inst execution rate
system.cpu00.iew.wb_sent                    116518955                       # cumulative count of insts sent to commit
system.cpu00.iew.wb_count                   116503593                       # cumulative count of insts written-back
system.cpu00.iew.wb_producers                78231289                       # num instructions producing a value
system.cpu00.iew.wb_consumers               107021205                       # num instructions consuming a value
system.cpu00.iew.wb_rate                     2.602205                       # insts written-back per cycle
system.cpu00.iew.wb_fanout                   0.730989                       # average fanout of values written-back
system.cpu00.commit.commitSquashedInsts        725242                       # The number of squashed insts skipped by commit
system.cpu00.commit.commitNonSpecStalls          2778                       # The number of times commit has been forced to stall to communicate backwards
system.cpu00.commit.branchMispredicts           21155                       # The number of times a branch was mispredicted
system.cpu00.commit.committed_per_cycle::samples     44432502                       # Number of insts commited each cycle
system.cpu00.commit.committed_per_cycle::mean     2.718543                       # Number of insts commited each cycle
system.cpu00.commit.committed_per_cycle::stdev     3.261963                       # Number of insts commited each cycle
system.cpu00.commit.committed_per_cycle::underflows            0      0.00%      0.00% # Number of insts commited each cycle
system.cpu00.commit.committed_per_cycle::0     20263704     45.61%     45.61% # Number of insts commited each cycle
system.cpu00.commit.committed_per_cycle::1      3941355      8.87%     54.48% # Number of insts commited each cycle
system.cpu00.commit.committed_per_cycle::2      3352777      7.55%     62.02% # Number of insts commited each cycle
system.cpu00.commit.committed_per_cycle::3      1967813      4.43%     66.45% # Number of insts commited each cycle
system.cpu00.commit.committed_per_cycle::4      2205952      4.96%     71.42% # Number of insts commited each cycle
system.cpu00.commit.committed_per_cycle::5      1590856      3.58%     75.00% # Number of insts commited each cycle
system.cpu00.commit.committed_per_cycle::6       620880      1.40%     76.39% # Number of insts commited each cycle
system.cpu00.commit.committed_per_cycle::7       175385      0.39%     76.79% # Number of insts commited each cycle
system.cpu00.commit.committed_per_cycle::8     10313780     23.21%    100.00% # Number of insts commited each cycle
system.cpu00.commit.committed_per_cycle::overflows            0      0.00%    100.00% # Number of insts commited each cycle
system.cpu00.commit.committed_per_cycle::min_value            0                       # Number of insts commited each cycle
system.cpu00.commit.committed_per_cycle::max_value            8                       # Number of insts commited each cycle
system.cpu00.commit.committed_per_cycle::total     44432502                       # Number of insts commited each cycle
system.cpu00.commit.committedInsts          120791651                       # Number of instructions committed
system.cpu00.commit.committedOps            120791651                       # Number of ops (including micro ops) committed
system.cpu00.commit.swp_count                       0                       # Number of s/w prefetches committed
system.cpu00.commit.refs                     28565310                       # Number of memory references committed
system.cpu00.commit.loads                    21057390                       # Number of loads committed
system.cpu00.commit.membars                      1102                       # Number of memory barriers committed
system.cpu00.commit.branches                 16205443                       # Number of branches committed
system.cpu00.commit.fp_insts                 19355700                       # Number of committed floating point instructions.
system.cpu00.commit.int_insts               108332311                       # Number of committed integer instructions.
system.cpu00.commit.function_calls            3202143                       # Number of function calls committed.
system.cpu00.commit.op_class_0::No_OpClass      4776276      3.95%      3.95% # Class of committed instruction
system.cpu00.commit.op_class_0::IntAlu       76846444     63.62%     67.57% # Class of committed instruction
system.cpu00.commit.op_class_0::IntMult       2389242      1.98%     69.55% # Class of committed instruction
system.cpu00.commit.op_class_0::IntDiv              0      0.00%     69.55% # Class of committed instruction
system.cpu00.commit.op_class_0::FloatAdd      4744804      3.93%     73.48% # Class of committed instruction
system.cpu00.commit.op_class_0::FloatCmp           27      0.00%     73.48% # Class of committed instruction
system.cpu00.commit.op_class_0::FloatCvt            0      0.00%     73.48% # Class of committed instruction
system.cpu00.commit.op_class_0::FloatMult      3460317      2.86%     76.34% # Class of committed instruction
system.cpu00.commit.op_class_0::FloatDiv         8128      0.01%     76.35% # Class of committed instruction
system.cpu00.commit.op_class_0::FloatSqrt            0      0.00%     76.35% # Class of committed instruction
system.cpu00.commit.op_class_0::SimdAdd             0      0.00%     76.35% # Class of committed instruction
system.cpu00.commit.op_class_0::SimdAddAcc            0      0.00%     76.35% # Class of committed instruction
system.cpu00.commit.op_class_0::SimdAlu             0      0.00%     76.35% # Class of committed instruction
system.cpu00.commit.op_class_0::SimdCmp             0      0.00%     76.35% # Class of committed instruction
system.cpu00.commit.op_class_0::SimdCvt             0      0.00%     76.35% # Class of committed instruction
system.cpu00.commit.op_class_0::SimdMisc            0      0.00%     76.35% # Class of committed instruction
system.cpu00.commit.op_class_0::SimdMult            0      0.00%     76.35% # Class of committed instruction
system.cpu00.commit.op_class_0::SimdMultAcc            0      0.00%     76.35% # Class of committed instruction
system.cpu00.commit.op_class_0::SimdShift            0      0.00%     76.35% # Class of committed instruction
system.cpu00.commit.op_class_0::SimdShiftAcc            0      0.00%     76.35% # Class of committed instruction
system.cpu00.commit.op_class_0::SimdSqrt            0      0.00%     76.35% # Class of committed instruction
system.cpu00.commit.op_class_0::SimdFloatAdd            0      0.00%     76.35% # Class of committed instruction
system.cpu00.commit.op_class_0::SimdFloatAlu            0      0.00%     76.35% # Class of committed instruction
system.cpu00.commit.op_class_0::SimdFloatCmp            0      0.00%     76.35% # Class of committed instruction
system.cpu00.commit.op_class_0::SimdFloatCvt            0      0.00%     76.35% # Class of committed instruction
system.cpu00.commit.op_class_0::SimdFloatDiv            0      0.00%     76.35% # Class of committed instruction
system.cpu00.commit.op_class_0::SimdFloatMisc            0      0.00%     76.35% # Class of committed instruction
system.cpu00.commit.op_class_0::SimdFloatMult            0      0.00%     76.35% # Class of committed instruction
system.cpu00.commit.op_class_0::SimdFloatMultAcc            0      0.00%     76.35% # Class of committed instruction
system.cpu00.commit.op_class_0::SimdFloatSqrt            0      0.00%     76.35% # Class of committed instruction
system.cpu00.commit.op_class_0::MemRead      21058492     17.43%     93.78% # Class of committed instruction
system.cpu00.commit.op_class_0::MemWrite      7507921      6.22%    100.00% # Class of committed instruction
system.cpu00.commit.op_class_0::IprAccess            0      0.00%    100.00% # Class of committed instruction
system.cpu00.commit.op_class_0::InstPrefetch            0      0.00%    100.00% # Class of committed instruction
system.cpu00.commit.op_class_0::total       120791651                       # Class of committed instruction
system.cpu00.commit.bw_lim_events            10313780                       # number cycles where commit BW limit reached
system.cpu00.rob.rob_reads                  155599306                       # The number of ROB reads
system.cpu00.rob.rob_writes                 243139229                       # The number of ROB writes
system.cpu00.timesIdled                          1686                       # Number of times that the entire CPU went into an idle state and unscheduled itself
system.cpu00.idleCycles                        233212                       # Total number of cycles that the CPU has spent unscheduled due to idling
system.cpu00.quiesceCycles                     926518                       # Total number of cycles that CPU has spent quiesced or waiting for an interrupt
system.cpu00.committedInsts                 116015375                       # Number of Instructions Simulated
system.cpu00.committedOps                   116015375                       # Number of Ops (including micro ops) Simulated
system.cpu00.cpi                             0.385907                       # CPI: Cycles Per Instruction
system.cpu00.cpi_total                       0.385907                       # CPI: Total CPI of All Threads
system.cpu00.ipc                             2.591300                       # IPC: Instructions Per Cycle
system.cpu00.ipc_total                       2.591300                       # IPC: Total IPC of All Threads
system.cpu00.int_regfile_reads              148312555                       # number of integer regfile reads
system.cpu00.int_regfile_writes              79446555                       # number of integer regfile writes
system.cpu00.fp_regfile_reads                18305699                       # number of floating regfile reads
system.cpu00.fp_regfile_writes               14838331                       # number of floating regfile writes
system.cpu00.misc_regfile_reads                265187                       # number of misc regfile reads
system.cpu00.misc_regfile_writes                 2454                       # number of misc regfile writes
system.cpu00.dcache.tags.replacements          511510                       # number of replacements
system.cpu00.dcache.tags.tagsinuse          63.951256                       # Cycle average of tags in use
system.cpu00.dcache.tags.total_refs          26331454                       # Total number of references to valid blocks.
system.cpu00.dcache.tags.sampled_refs          511574                       # Sample count of references to valid blocks.
system.cpu00.dcache.tags.avg_refs           51.471447                       # Average number of references to valid blocks.
system.cpu00.dcache.tags.warmup_cycle        84679857                       # Cycle when the warmup percentage was hit.
system.cpu00.dcache.tags.occ_blocks::cpu00.data    63.951256                       # Average occupied blocks per requestor
system.cpu00.dcache.tags.occ_percent::cpu00.data     0.999238                       # Average percentage of cache occupancy
system.cpu00.dcache.tags.occ_percent::total     0.999238                       # Average percentage of cache occupancy
system.cpu00.dcache.tags.occ_task_id_blocks::1024           64                       # Occupied blocks per task id
system.cpu00.dcache.tags.age_task_id_blocks_1024::0           35                       # Occupied blocks per task id
system.cpu00.dcache.tags.age_task_id_blocks_1024::1           29                       # Occupied blocks per task id
system.cpu00.dcache.tags.occ_task_id_percent::1024            1                       # Percentage of cache occupancy per task id
system.cpu00.dcache.tags.tag_accesses        55624303                       # Number of tag accesses
system.cpu00.dcache.tags.data_accesses       55624303                       # Number of data accesses
system.cpu00.dcache.ReadReq_hits::cpu00.data     18993996                       # number of ReadReq hits
system.cpu00.dcache.ReadReq_hits::total      18993996                       # number of ReadReq hits
system.cpu00.dcache.WriteReq_hits::cpu00.data      7335005                       # number of WriteReq hits
system.cpu00.dcache.WriteReq_hits::total      7335005                       # number of WriteReq hits
system.cpu00.dcache.LoadLockedReq_hits::cpu00.data          930                       # number of LoadLockedReq hits
system.cpu00.dcache.LoadLockedReq_hits::total          930                       # number of LoadLockedReq hits
system.cpu00.dcache.StoreCondReq_hits::cpu00.data         1214                       # number of StoreCondReq hits
system.cpu00.dcache.StoreCondReq_hits::total         1214                       # number of StoreCondReq hits
system.cpu00.dcache.demand_hits::cpu00.data     26329001                       # number of demand (read+write) hits
system.cpu00.dcache.demand_hits::total       26329001                       # number of demand (read+write) hits
system.cpu00.dcache.overall_hits::cpu00.data     26329001                       # number of overall hits
system.cpu00.dcache.overall_hits::total      26329001                       # number of overall hits
system.cpu00.dcache.ReadReq_misses::cpu00.data      1053076                       # number of ReadReq misses
system.cpu00.dcache.ReadReq_misses::total      1053076                       # number of ReadReq misses
system.cpu00.dcache.WriteReq_misses::cpu00.data       171689                       # number of WriteReq misses
system.cpu00.dcache.WriteReq_misses::total       171689                       # number of WriteReq misses
system.cpu00.dcache.LoadLockedReq_misses::cpu00.data          360                       # number of LoadLockedReq misses
system.cpu00.dcache.LoadLockedReq_misses::total          360                       # number of LoadLockedReq misses
system.cpu00.dcache.StoreCondReq_misses::cpu00.data           12                       # number of StoreCondReq misses
system.cpu00.dcache.StoreCondReq_misses::total           12                       # number of StoreCondReq misses
system.cpu00.dcache.demand_misses::cpu00.data      1224765                       # number of demand (read+write) misses
system.cpu00.dcache.demand_misses::total      1224765                       # number of demand (read+write) misses
system.cpu00.dcache.overall_misses::cpu00.data      1224765                       # number of overall misses
system.cpu00.dcache.overall_misses::total      1224765                       # number of overall misses
system.cpu00.dcache.ReadReq_miss_latency::cpu00.data  77715852759                       # number of ReadReq miss cycles
system.cpu00.dcache.ReadReq_miss_latency::total  77715852759                       # number of ReadReq miss cycles
system.cpu00.dcache.WriteReq_miss_latency::cpu00.data  13381136507                       # number of WriteReq miss cycles
system.cpu00.dcache.WriteReq_miss_latency::total  13381136507                       # number of WriteReq miss cycles
system.cpu00.dcache.LoadLockedReq_miss_latency::cpu00.data      4431537                       # number of LoadLockedReq miss cycles
system.cpu00.dcache.LoadLockedReq_miss_latency::total      4431537                       # number of LoadLockedReq miss cycles
system.cpu00.dcache.StoreCondReq_miss_latency::cpu00.data        77787                       # number of StoreCondReq miss cycles
system.cpu00.dcache.StoreCondReq_miss_latency::total        77787                       # number of StoreCondReq miss cycles
system.cpu00.dcache.demand_miss_latency::cpu00.data  91096989266                       # number of demand (read+write) miss cycles
system.cpu00.dcache.demand_miss_latency::total  91096989266                       # number of demand (read+write) miss cycles
system.cpu00.dcache.overall_miss_latency::cpu00.data  91096989266                       # number of overall miss cycles
system.cpu00.dcache.overall_miss_latency::total  91096989266                       # number of overall miss cycles
system.cpu00.dcache.ReadReq_accesses::cpu00.data     20047072                       # number of ReadReq accesses(hits+misses)
system.cpu00.dcache.ReadReq_accesses::total     20047072                       # number of ReadReq accesses(hits+misses)
system.cpu00.dcache.WriteReq_accesses::cpu00.data      7506694                       # number of WriteReq accesses(hits+misses)
system.cpu00.dcache.WriteReq_accesses::total      7506694                       # number of WriteReq accesses(hits+misses)
system.cpu00.dcache.LoadLockedReq_accesses::cpu00.data         1290                       # number of LoadLockedReq accesses(hits+misses)
system.cpu00.dcache.LoadLockedReq_accesses::total         1290                       # number of LoadLockedReq accesses(hits+misses)
system.cpu00.dcache.StoreCondReq_accesses::cpu00.data         1226                       # number of StoreCondReq accesses(hits+misses)
system.cpu00.dcache.StoreCondReq_accesses::total         1226                       # number of StoreCondReq accesses(hits+misses)
system.cpu00.dcache.demand_accesses::cpu00.data     27553766                       # number of demand (read+write) accesses
system.cpu00.dcache.demand_accesses::total     27553766                       # number of demand (read+write) accesses
system.cpu00.dcache.overall_accesses::cpu00.data     27553766                       # number of overall (read+write) accesses
system.cpu00.dcache.overall_accesses::total     27553766                       # number of overall (read+write) accesses
system.cpu00.dcache.ReadReq_miss_rate::cpu00.data     0.052530                       # miss rate for ReadReq accesses
system.cpu00.dcache.ReadReq_miss_rate::total     0.052530                       # miss rate for ReadReq accesses
system.cpu00.dcache.WriteReq_miss_rate::cpu00.data     0.022871                       # miss rate for WriteReq accesses
system.cpu00.dcache.WriteReq_miss_rate::total     0.022871                       # miss rate for WriteReq accesses
system.cpu00.dcache.LoadLockedReq_miss_rate::cpu00.data     0.279070                       # miss rate for LoadLockedReq accesses
system.cpu00.dcache.LoadLockedReq_miss_rate::total     0.279070                       # miss rate for LoadLockedReq accesses
system.cpu00.dcache.StoreCondReq_miss_rate::cpu00.data     0.009788                       # miss rate for StoreCondReq accesses
system.cpu00.dcache.StoreCondReq_miss_rate::total     0.009788                       # miss rate for StoreCondReq accesses
system.cpu00.dcache.demand_miss_rate::cpu00.data     0.044450                       # miss rate for demand accesses
system.cpu00.dcache.demand_miss_rate::total     0.044450                       # miss rate for demand accesses
system.cpu00.dcache.overall_miss_rate::cpu00.data     0.044450                       # miss rate for overall accesses
system.cpu00.dcache.overall_miss_rate::total     0.044450                       # miss rate for overall accesses
system.cpu00.dcache.ReadReq_avg_miss_latency::cpu00.data 73798.902225                       # average ReadReq miss latency
system.cpu00.dcache.ReadReq_avg_miss_latency::total 73798.902225                       # average ReadReq miss latency
system.cpu00.dcache.WriteReq_avg_miss_latency::cpu00.data 77938.228465                       # average WriteReq miss latency
system.cpu00.dcache.WriteReq_avg_miss_latency::total 77938.228465                       # average WriteReq miss latency
system.cpu00.dcache.LoadLockedReq_avg_miss_latency::cpu00.data 12309.825000                       # average LoadLockedReq miss latency
system.cpu00.dcache.LoadLockedReq_avg_miss_latency::total 12309.825000                       # average LoadLockedReq miss latency
system.cpu00.dcache.StoreCondReq_avg_miss_latency::cpu00.data  6482.250000                       # average StoreCondReq miss latency
system.cpu00.dcache.StoreCondReq_avg_miss_latency::total  6482.250000                       # average StoreCondReq miss latency
system.cpu00.dcache.demand_avg_miss_latency::cpu00.data 74379.157852                       # average overall miss latency
system.cpu00.dcache.demand_avg_miss_latency::total 74379.157852                       # average overall miss latency
system.cpu00.dcache.overall_avg_miss_latency::cpu00.data 74379.157852                       # average overall miss latency
system.cpu00.dcache.overall_avg_miss_latency::total 74379.157852                       # average overall miss latency
system.cpu00.dcache.blocked_cycles::no_mshrs       395360                       # number of cycles access was blocked
system.cpu00.dcache.blocked_cycles::no_targets          313                       # number of cycles access was blocked
system.cpu00.dcache.blocked::no_mshrs           11812                       # number of cycles access was blocked
system.cpu00.dcache.blocked::no_targets             3                       # number of cycles access was blocked
system.cpu00.dcache.avg_blocked_cycles::no_mshrs    33.471046                       # average number of cycles each access was blocked
system.cpu00.dcache.avg_blocked_cycles::no_targets   104.333333                       # average number of cycles each access was blocked
system.cpu00.dcache.fast_writes                     0                       # number of fast writes performed
system.cpu00.dcache.cache_copies                    0                       # number of cache copies performed
system.cpu00.dcache.writebacks::writebacks       271468                       # number of writebacks
system.cpu00.dcache.writebacks::total          271468                       # number of writebacks
system.cpu00.dcache.ReadReq_mshr_hits::cpu00.data       635337                       # number of ReadReq MSHR hits
system.cpu00.dcache.ReadReq_mshr_hits::total       635337                       # number of ReadReq MSHR hits
system.cpu00.dcache.WriteReq_mshr_hits::cpu00.data        77724                       # number of WriteReq MSHR hits
system.cpu00.dcache.WriteReq_mshr_hits::total        77724                       # number of WriteReq MSHR hits
system.cpu00.dcache.LoadLockedReq_mshr_hits::cpu00.data          170                       # number of LoadLockedReq MSHR hits
system.cpu00.dcache.LoadLockedReq_mshr_hits::total          170                       # number of LoadLockedReq MSHR hits
system.cpu00.dcache.demand_mshr_hits::cpu00.data       713061                       # number of demand (read+write) MSHR hits
system.cpu00.dcache.demand_mshr_hits::total       713061                       # number of demand (read+write) MSHR hits
system.cpu00.dcache.overall_mshr_hits::cpu00.data       713061                       # number of overall MSHR hits
system.cpu00.dcache.overall_mshr_hits::total       713061                       # number of overall MSHR hits
system.cpu00.dcache.ReadReq_mshr_misses::cpu00.data       417739                       # number of ReadReq MSHR misses
system.cpu00.dcache.ReadReq_mshr_misses::total       417739                       # number of ReadReq MSHR misses
system.cpu00.dcache.WriteReq_mshr_misses::cpu00.data        93965                       # number of WriteReq MSHR misses
system.cpu00.dcache.WriteReq_mshr_misses::total        93965                       # number of WriteReq MSHR misses
system.cpu00.dcache.LoadLockedReq_mshr_misses::cpu00.data          190                       # number of LoadLockedReq MSHR misses
system.cpu00.dcache.LoadLockedReq_mshr_misses::total          190                       # number of LoadLockedReq MSHR misses
system.cpu00.dcache.StoreCondReq_mshr_misses::cpu00.data           11                       # number of StoreCondReq MSHR misses
system.cpu00.dcache.StoreCondReq_mshr_misses::total           11                       # number of StoreCondReq MSHR misses
system.cpu00.dcache.demand_mshr_misses::cpu00.data       511704                       # number of demand (read+write) MSHR misses
system.cpu00.dcache.demand_mshr_misses::total       511704                       # number of demand (read+write) MSHR misses
system.cpu00.dcache.overall_mshr_misses::cpu00.data       511704                       # number of overall MSHR misses
system.cpu00.dcache.overall_mshr_misses::total       511704                       # number of overall MSHR misses
system.cpu00.dcache.ReadReq_mshr_miss_latency::cpu00.data  16599942009                       # number of ReadReq MSHR miss cycles
system.cpu00.dcache.ReadReq_mshr_miss_latency::total  16599942009                       # number of ReadReq MSHR miss cycles
system.cpu00.dcache.WriteReq_mshr_miss_latency::cpu00.data   8607441098                       # number of WriteReq MSHR miss cycles
system.cpu00.dcache.WriteReq_mshr_miss_latency::total   8607441098                       # number of WriteReq MSHR miss cycles
system.cpu00.dcache.LoadLockedReq_mshr_miss_latency::cpu00.data      1872693                       # number of LoadLockedReq MSHR miss cycles
system.cpu00.dcache.LoadLockedReq_mshr_miss_latency::total      1872693                       # number of LoadLockedReq MSHR miss cycles
system.cpu00.dcache.StoreCondReq_mshr_miss_latency::cpu00.data        65016                       # number of StoreCondReq MSHR miss cycles
system.cpu00.dcache.StoreCondReq_mshr_miss_latency::total        65016                       # number of StoreCondReq MSHR miss cycles
system.cpu00.dcache.demand_mshr_miss_latency::cpu00.data  25207383107                       # number of demand (read+write) MSHR miss cycles
system.cpu00.dcache.demand_mshr_miss_latency::total  25207383107                       # number of demand (read+write) MSHR miss cycles
system.cpu00.dcache.overall_mshr_miss_latency::cpu00.data  25207383107                       # number of overall MSHR miss cycles
system.cpu00.dcache.overall_mshr_miss_latency::total  25207383107                       # number of overall MSHR miss cycles
system.cpu00.dcache.ReadReq_mshr_miss_rate::cpu00.data     0.020838                       # mshr miss rate for ReadReq accesses
system.cpu00.dcache.ReadReq_mshr_miss_rate::total     0.020838                       # mshr miss rate for ReadReq accesses
system.cpu00.dcache.WriteReq_mshr_miss_rate::cpu00.data     0.012517                       # mshr miss rate for WriteReq accesses
system.cpu00.dcache.WriteReq_mshr_miss_rate::total     0.012517                       # mshr miss rate for WriteReq accesses
system.cpu00.dcache.LoadLockedReq_mshr_miss_rate::cpu00.data     0.147287                       # mshr miss rate for LoadLockedReq accesses
system.cpu00.dcache.LoadLockedReq_mshr_miss_rate::total     0.147287                       # mshr miss rate for LoadLockedReq accesses
system.cpu00.dcache.StoreCondReq_mshr_miss_rate::cpu00.data     0.008972                       # mshr miss rate for StoreCondReq accesses
system.cpu00.dcache.StoreCondReq_mshr_miss_rate::total     0.008972                       # mshr miss rate for StoreCondReq accesses
system.cpu00.dcache.demand_mshr_miss_rate::cpu00.data     0.018571                       # mshr miss rate for demand accesses
system.cpu00.dcache.demand_mshr_miss_rate::total     0.018571                       # mshr miss rate for demand accesses
system.cpu00.dcache.overall_mshr_miss_rate::cpu00.data     0.018571                       # mshr miss rate for overall accesses
system.cpu00.dcache.overall_mshr_miss_rate::total     0.018571                       # mshr miss rate for overall accesses
system.cpu00.dcache.ReadReq_avg_mshr_miss_latency::cpu00.data 39737.592154                       # average ReadReq mshr miss latency
system.cpu00.dcache.ReadReq_avg_mshr_miss_latency::total 39737.592154                       # average ReadReq mshr miss latency
system.cpu00.dcache.WriteReq_avg_mshr_miss_latency::cpu00.data 91602.629681                       # average WriteReq mshr miss latency
system.cpu00.dcache.WriteReq_avg_mshr_miss_latency::total 91602.629681                       # average WriteReq mshr miss latency
system.cpu00.dcache.LoadLockedReq_avg_mshr_miss_latency::cpu00.data  9856.278947                       # average LoadLockedReq mshr miss latency
system.cpu00.dcache.LoadLockedReq_avg_mshr_miss_latency::total  9856.278947                       # average LoadLockedReq mshr miss latency
system.cpu00.dcache.StoreCondReq_avg_mshr_miss_latency::cpu00.data  5910.545455                       # average StoreCondReq mshr miss latency
system.cpu00.dcache.StoreCondReq_avg_mshr_miss_latency::total  5910.545455                       # average StoreCondReq mshr miss latency
system.cpu00.dcache.demand_avg_mshr_miss_latency::cpu00.data 49261.649522                       # average overall mshr miss latency
system.cpu00.dcache.demand_avg_mshr_miss_latency::total 49261.649522                       # average overall mshr miss latency
[...]
system.tol2bus.pkt_count_system.cpu06.dcache.mem_side::system.l2.cpu_side       325723                       # Packet count per connected master and slave (bytes)
system.tol2bus.pkt_count_system.cpu07.icache.mem_side::system.l2.cpu_side          923                       # Packet count per connected master and slave (bytes)
system.tol2bus.pkt_count_system.cpu07.dcache.mem_side::system.l2.cpu_side       339270                       # Packet count per connected master and slave (bytes)
system.tol2bus.pkt_count_system.cpu08.icache.mem_side::system.l2.cpu_side          845                       # Packet count per connected master and slave (bytes)
system.tol2bus.pkt_count_system.cpu08.dcache.mem_side::system.l2.cpu_side       357126                       # Packet count per connected master and slave (bytes)
system.tol2bus.pkt_count_system.cpu09.icache.mem_side::system.l2.cpu_side          849                       # Packet count per connected master and slave (bytes)
system.tol2bus.pkt_count_system.cpu09.dcache.mem_side::system.l2.cpu_side       321931                       # Packet count per connected master and slave (bytes)
system.tol2bus.pkt_count_system.cpu10.icache.mem_side::system.l2.cpu_side          838                       # Packet count per connected master and slave (bytes)
system.tol2bus.pkt_count_system.cpu10.dcache.mem_side::system.l2.cpu_side       340603                       # Packet count per connected master and slave (bytes)
system.tol2bus.pkt_count_system.cpu11.icache.mem_side::system.l2.cpu_side          857                       # Packet count per connected master and slave (bytes)
system.tol2bus.pkt_count_system.cpu11.dcache.mem_side::system.l2.cpu_side       360035                       # Packet count per connected master and slave (bytes)
system.tol2bus.pkt_count_system.cpu12.icache.mem_side::system.l2.cpu_side          848                       # Packet count per connected master and slave (bytes)
system.tol2bus.pkt_count_system.cpu12.dcache.mem_side::system.l2.cpu_side       379842                       # Packet count per connected master and slave (bytes)
system.tol2bus.pkt_count_system.cpu13.icache.mem_side::system.l2.cpu_side          849                       # Packet count per connected master and slave (bytes)
system.tol2bus.pkt_count_system.cpu13.dcache.mem_side::system.l2.cpu_side       338630                       # Packet count per connected master and slave (bytes)
system.tol2bus.pkt_count_system.cpu14.icache.mem_side::system.l2.cpu_side          846                       # Packet count per connected master and slave (bytes)
system.tol2bus.pkt_count_system.cpu14.dcache.mem_side::system.l2.cpu_side       352655                       # Packet count per connected master and slave (bytes)
system.tol2bus.pkt_count_system.cpu15.icache.mem_side::system.l2.cpu_side          840                       # Packet count per connected master and slave (bytes)
system.tol2bus.pkt_count_system.cpu15.dcache.mem_side::system.l2.cpu_side       371018                       # Packet count per connected master and slave (bytes)
system.tol2bus.pkt_count::total               6551739                       # Packet count per connected master and slave (bytes)
system.tol2bus.pkt_size_system.cpu00.icache.mem_side::system.l2.cpu_side       990464                       # Cumulative packet size per connected master and slave (bytes)
system.tol2bus.pkt_size_system.cpu00.dcache.mem_side::system.l2.cpu_side     45456768                       # Cumulative packet size per connected master and slave (bytes)
system.tol2bus.pkt_size_system.cpu01.icache.mem_side::system.l2.cpu_side        41920                       # Cumulative packet size per connected master and slave (bytes)
system.tol2bus.pkt_size_system.cpu01.dcache.mem_side::system.l2.cpu_side      8560064                       # Cumulative packet size per connected master and slave (bytes)
system.tol2bus.pkt_size_system.cpu02.icache.mem_side::system.l2.cpu_side        32256                       # Cumulative packet size per connected master and slave (bytes)
system.tol2bus.pkt_size_system.cpu02.dcache.mem_side::system.l2.cpu_side      9363904                       # Cumulative packet size per connected master and slave (bytes)
system.tol2bus.pkt_size_system.cpu03.icache.mem_side::system.l2.cpu_side        32256                       # Cumulative packet size per connected master and slave (bytes)
system.tol2bus.pkt_size_system.cpu03.dcache.mem_side::system.l2.cpu_side      9071360                       # Cumulative packet size per connected master and slave (bytes)
system.tol2bus.pkt_size_system.cpu04.icache.mem_side::system.l2.cpu_side        28480                       # Cumulative packet size per connected master and slave (bytes)
system.tol2bus.pkt_size_system.cpu04.dcache.mem_side::system.l2.cpu_side      9896960                       # Cumulative packet size per connected master and slave (bytes)
system.tol2bus.pkt_size_system.cpu05.icache.mem_side::system.l2.cpu_side        28672                       # Cumulative packet size per connected master and slave (bytes)
system.tol2bus.pkt_size_system.cpu05.dcache.mem_side::system.l2.cpu_side      8823488                       # Cumulative packet size per connected master and slave (bytes)
system.tol2bus.pkt_size_system.cpu06.icache.mem_side::system.l2.cpu_side        28736                       # Cumulative packet size per connected master and slave (bytes)
system.tol2bus.pkt_size_system.cpu06.dcache.mem_side::system.l2.cpu_side      9843136                       # Cumulative packet size per connected master and slave (bytes)
system.tol2bus.pkt_size_system.cpu07.icache.mem_side::system.l2.cpu_side        31616                       # Cumulative packet size per connected master and slave (bytes)
system.tol2bus.pkt_size_system.cpu07.dcache.mem_side::system.l2.cpu_side      9716672                       # Cumulative packet size per connected master and slave (bytes)
system.tol2bus.pkt_size_system.cpu08.icache.mem_side::system.l2.cpu_side        28672                       # Cumulative packet size per connected master and slave (bytes)
system.tol2bus.pkt_size_system.cpu08.dcache.mem_side::system.l2.cpu_side     10617472                       # Cumulative packet size per connected master and slave (bytes)
system.tol2bus.pkt_size_system.cpu09.icache.mem_side::system.l2.cpu_side        28800                       # Cumulative packet size per connected master and slave (bytes)
system.tol2bus.pkt_size_system.cpu09.dcache.mem_side::system.l2.cpu_side      9512832                       # Cumulative packet size per connected master and slave (bytes)
system.tol2bus.pkt_size_system.cpu10.icache.mem_side::system.l2.cpu_side        28416                       # Cumulative packet size per connected master and slave (bytes)
system.tol2bus.pkt_size_system.cpu10.dcache.mem_side::system.l2.cpu_side     10085696                       # Cumulative packet size per connected master and slave (bytes)
system.tol2bus.pkt_size_system.cpu11.icache.mem_side::system.l2.cpu_side        29056                       # Cumulative packet size per connected master and slave (bytes)
system.tol2bus.pkt_size_system.cpu11.dcache.mem_side::system.l2.cpu_side     10740288                       # Cumulative packet size per connected master and slave (bytes)
system.tol2bus.pkt_size_system.cpu12.icache.mem_side::system.l2.cpu_side        28736                       # Cumulative packet size per connected master and slave (bytes)
system.tol2bus.pkt_size_system.cpu12.dcache.mem_side::system.l2.cpu_side     11764160                       # Cumulative packet size per connected master and slave (bytes)
system.tol2bus.pkt_size_system.cpu13.icache.mem_side::system.l2.cpu_side        28800                       # Cumulative packet size per connected master and slave (bytes)
system.tol2bus.pkt_size_system.cpu13.dcache.mem_side::system.l2.cpu_side     10241856                       # Cumulative packet size per connected master and slave (bytes)
system.tol2bus.pkt_size_system.cpu14.icache.mem_side::system.l2.cpu_side        28672                       # Cumulative packet size per connected master and slave (bytes)
system.tol2bus.pkt_size_system.cpu14.dcache.mem_side::system.l2.cpu_side     10204608                       # Cumulative packet size per connected master and slave (bytes)
system.tol2bus.pkt_size_system.cpu15.icache.mem_side::system.l2.cpu_side        28480                       # Cumulative packet size per connected master and slave (bytes)
system.tol2bus.pkt_size_system.cpu15.dcache.mem_side::system.l2.cpu_side     10718336                       # Cumulative packet size per connected master and slave (bytes)
system.tol2bus.pkt_size::total              196061632                       # Cumulative packet size per connected master and slave (bytes)
system.tol2bus.snoops                          787455                       # Total snoops (count)
system.tol2bus.snoop_fanout::samples          2705042                       # Request fanout histogram
system.tol2bus.snoop_fanout::mean            0.939928                       # Request fanout histogram
system.tol2bus.snoop_fanout::stdev           2.383682                       # Request fanout histogram
system.tol2bus.snoop_fanout::underflows             0      0.00%      0.00% # Request fanout histogram
system.tol2bus.snoop_fanout::0                1786258     66.03%     66.03% # Request fanout histogram
system.tol2bus.snoop_fanout::1                 390311     14.43%     80.46% # Request fanout histogram
system.tol2bus.snoop_fanout::2                 279218     10.32%     90.79% # Request fanout histogram
system.tol2bus.snoop_fanout::3                 153466      5.67%     96.46% # Request fanout histogram
system.tol2bus.snoop_fanout::4                   5361      0.20%     96.66% # Request fanout histogram
system.tol2bus.snoop_fanout::5                   5051      0.19%     96.84% # Request fanout histogram
system.tol2bus.snoop_fanout::6                   5270      0.19%     97.04% # Request fanout histogram
system.tol2bus.snoop_fanout::7                   3897      0.14%     97.18% # Request fanout histogram
system.tol2bus.snoop_fanout::8                   4196      0.16%     97.34% # Request fanout histogram
system.tol2bus.snoop_fanout::9                   4519      0.17%     97.50% # Request fanout histogram
system.tol2bus.snoop_fanout::10                  4285      0.16%     97.66% # Request fanout histogram
system.tol2bus.snoop_fanout::11                  3983      0.15%     97.81% # Request fanout histogram
system.tol2bus.snoop_fanout::12                  3972      0.15%     97.96% # Request fanout histogram
system.tol2bus.snoop_fanout::13                  3471      0.13%     98.09% # Request fanout histogram
system.tol2bus.snoop_fanout::14                  2842      0.11%     98.19% # Request fanout histogram
system.tol2bus.snoop_fanout::15                 48748      1.80%     99.99% # Request fanout histogram
system.tol2bus.snoop_fanout::16                   194      0.01%    100.00% # Request fanout histogram
system.tol2bus.snoop_fanout::17                     0      0.00%    100.00% # Request fanout histogram
system.tol2bus.snoop_fanout::18                     0      0.00%    100.00% # Request fanout histogram
system.tol2bus.snoop_fanout::19                     0      0.00%    100.00% # Request fanout histogram
system.tol2bus.snoop_fanout::20                     0      0.00%    100.00% # Request fanout histogram
system.tol2bus.snoop_fanout::21                     0      0.00%    100.00% # Request fanout histogram
system.tol2bus.snoop_fanout::22                     0      0.00%    100.00% # Request fanout histogram
system.tol2bus.snoop_fanout::23                     0      0.00%    100.00% # Request fanout histogram
system.tol2bus.snoop_fanout::24                     0      0.00%    100.00% # Request fanout histogram
system.tol2bus.snoop_fanout::25                     0      0.00%    100.00% # Request fanout histogram
system.tol2bus.snoop_fanout::26                     0      0.00%    100.00% # Request fanout histogram
system.tol2bus.snoop_fanout::27                     0      0.00%    100.00% # Request fanout histogram
system.tol2bus.snoop_fanout::28                     0      0.00%    100.00% # Request fanout histogram
system.tol2bus.snoop_fanout::29                     0      0.00%    100.00% # Request fanout histogram
system.tol2bus.snoop_fanout::30                     0      0.00%    100.00% # Request fanout histogram
system.tol2bus.snoop_fanout::31                     0      0.00%    100.00% # Request fanout histogram
system.tol2bus.snoop_fanout::32                     0      0.00%    100.00% # Request fanout histogram
system.tol2bus.snoop_fanout::overflows              0      0.00%    100.00% # Request fanout histogram
system.tol2bus.snoop_fanout::min_value              0                       # Request fanout histogram
system.tol2bus.snoop_fanout::max_value             16                       # Request fanout histogram
system.tol2bus.snoop_fanout::total            2705042                       # Request fanout histogram
system.tol2bus.reqLayer0.occupancy         8232774127                       # Layer occupancy (ticks)
system.tol2bus.reqLayer0.utilization             15.5                       # Layer utilization (%)
system.tol2bus.respLayer0.occupancy          28158407                       # Layer occupancy (ticks)
system.tol2bus.respLayer0.utilization             0.1                       # Layer utilization (%)
system.tol2bus.respLayer1.occupancy        1793985819                       # Layer occupancy (ticks)
system.tol2bus.respLayer1.utilization             3.4                       # Layer utilization (%)
system.tol2bus.respLayer2.occupancy           1836620                       # Layer occupancy (ticks)
system.tol2bus.respLayer2.utilization             0.0                       # Layer utilization (%)
system.tol2bus.respLayer3.occupancy         375015733                       # Layer occupancy (ticks)
system.tol2bus.respLayer3.utilization             0.7                       # Layer utilization (%)
system.tol2bus.respLayer4.occupancy           1566404                       # Layer occupancy (ticks)
system.tol2bus.respLayer4.utilization             0.0                       # Layer utilization (%)
system.tol2bus.respLayer5.occupancy         394011457                       # Layer occupancy (ticks)
system.tol2bus.respLayer5.utilization             0.7                       # Layer utilization (%)
system.tol2bus.respLayer6.occupancy           1558007                       # Layer occupancy (ticks)
system.tol2bus.respLayer6.utilization             0.0                       # Layer utilization (%)
system.tol2bus.respLayer7.occupancy         412512376                       # Layer occupancy (ticks)
system.tol2bus.respLayer7.utilization             0.8                       # Layer utilization (%)
system.tol2bus.respLayer8.occupancy           1422821                       # Layer occupancy (ticks)
system.tol2bus.respLayer8.utilization             0.0                       # Layer utilization (%)
system.tol2bus.respLayer9.occupancy         432350058                       # Layer occupancy (ticks)
system.tol2bus.respLayer9.utilization             0.8                       # Layer utilization (%)
system.tol2bus.respLayer10.occupancy          1427866                       # Layer occupancy (ticks)
system.tol2bus.respLayer10.utilization            0.0                       # Layer utilization (%)
system.tol2bus.respLayer11.occupancy        392563758                       # Layer occupancy (ticks)
system.tol2bus.respLayer11.utilization            0.7                       # Layer utilization (%)
system.tol2bus.respLayer12.occupancy          1433679                       # Layer occupancy (ticks)
system.tol2bus.respLayer12.utilization            0.0                       # Layer utilization (%)
system.tol2bus.respLayer13.occupancy        414782369                       # Layer occupancy (ticks)
system.tol2bus.respLayer13.utilization            0.8                       # Layer utilization (%)
system.tol2bus.respLayer14.occupancy          1535843                       # Layer occupancy (ticks)
system.tol2bus.respLayer14.utilization            0.0                       # Layer utilization (%)
system.tol2bus.respLayer15.occupancy        435416129                       # Layer occupancy (ticks)
system.tol2bus.respLayer15.utilization            0.8                       # Layer utilization (%)
system.tol2bus.respLayer16.occupancy          1434015                       # Layer occupancy (ticks)
system.tol2bus.respLayer16.utilization            0.0                       # Layer utilization (%)
system.tol2bus.respLayer17.occupancy        455210252                       # Layer occupancy (ticks)
system.tol2bus.respLayer17.utilization            0.9                       # Layer utilization (%)
system.tol2bus.respLayer18.occupancy          1430210                       # Layer occupancy (ticks)
system.tol2bus.respLayer18.utilization            0.0                       # Layer utilization (%)
system.tol2bus.respLayer19.occupancy        411410524                       # Layer occupancy (ticks)
system.tol2bus.respLayer19.utilization            0.8                       # Layer utilization (%)
system.tol2bus.respLayer20.occupancy          1417404                       # Layer occupancy (ticks)
system.tol2bus.respLayer20.utilization            0.0                       # Layer utilization (%)
system.tol2bus.respLayer21.occupancy        435192905                       # Layer occupancy (ticks)
system.tol2bus.respLayer21.utilization            0.8                       # Layer utilization (%)
system.tol2bus.respLayer22.occupancy          1448698                       # Layer occupancy (ticks)
system.tol2bus.respLayer22.utilization            0.0                       # Layer utilization (%)
system.tol2bus.respLayer23.occupancy        457942915                       # Layer occupancy (ticks)
system.tol2bus.respLayer23.utilization            0.9                       # Layer utilization (%)
system.tol2bus.respLayer24.occupancy          1418875                       # Layer occupancy (ticks)
system.tol2bus.respLayer24.utilization            0.0                       # Layer utilization (%)
system.tol2bus.respLayer25.occupancy        479675316                       # Layer occupancy (ticks)
system.tol2bus.respLayer25.utilization            0.9                       # Layer utilization (%)
system.tol2bus.respLayer26.occupancy          1420067                       # Layer occupancy (ticks)
system.tol2bus.respLayer26.utilization            0.0                       # Layer utilization (%)
system.tol2bus.respLayer27.occupancy        430925599                       # Layer occupancy (ticks)
system.tol2bus.respLayer27.utilization            0.8                       # Layer utilization (%)
system.tol2bus.respLayer28.occupancy          1427699                       # Layer occupancy (ticks)
system.tol2bus.respLayer28.utilization            0.0                       # Layer utilization (%)
system.tol2bus.respLayer29.occupancy        453043314                       # Layer occupancy (ticks)
system.tol2bus.respLayer29.utilization            0.9                       # Layer utilization (%)
system.tol2bus.respLayer30.occupancy          1409127                       # Layer occupancy (ticks)
system.tol2bus.respLayer30.utilization            0.0                       # Layer utilization (%)
system.tol2bus.respLayer31.occupancy        477056416                       # Layer occupancy (ticks)
system.tol2bus.respLayer31.utilization            0.9                       # Layer utilization (%)

---------- End Simulation Statistics   ----------
