
---------- Begin Simulation Statistics ----------
sim_seconds                                  0.023998                       # Number of seconds simulated
sim_ticks                                 23998289121                       # Number of ticks simulated
final_tick                                23998289121                       # Number of ticks from beginning of simulation (restored from checkpoints and never reset)
sim_freq                                 1000000000000                       # Frequency of simulated ticks
host_inst_rate                                  97601                       # Simulator instruction rate (inst/s)
host_op_rate                                    97601                       # Simulator op (including micro ops) rate (op/s)
host_tick_rate                               19927081                       # Simulator tick rate (ticks/s)
host_mem_usage                                 696944                       # Number of bytes of host memory used
host_seconds                                  1204.31                       # Real time elapsed on the host
sim_insts                                   117541957                       # Number of instructions simulated
sim_ops                                     117541957                       # Number of ops (including micro ops) simulated
system.voltage_domain.voltage                       1                       # Voltage in Volts
system.clk_domain.clock                          1000                       # Clock period in ticks
system.mem_ctrls.bytes_read::cpu00.inst        180992                       # Number of bytes read from this memory
system.mem_ctrls.bytes_read::cpu00.data       3351552                       # Number of bytes read from this memory
system.mem_ctrls.bytes_read::cpu01.inst         58176                       # Number of bytes read from this memory
system.mem_ctrls.bytes_read::cpu01.data       2779648                       # Number of bytes read from this memory
system.mem_ctrls.bytes_read::cpu02.inst         12096                       # Number of bytes read from this memory
system.mem_ctrls.bytes_read::cpu02.data       2620544                       # Number of bytes read from this memory
system.mem_ctrls.bytes_read::cpu03.inst         16192                       # Number of bytes read from this memory
system.mem_ctrls.bytes_read::cpu03.data       2742848                       # Number of bytes read from this memory
system.mem_ctrls.bytes_read::cpu04.inst         29376                       # Number of bytes read from this memory
system.mem_ctrls.bytes_read::cpu04.data       2882624                       # Number of bytes read from this memory
system.mem_ctrls.bytes_read::cpu05.inst         16384                       # Number of bytes read from this memory
system.mem_ctrls.bytes_read::cpu05.data       2814272                       # Number of bytes read from this memory
system.mem_ctrls.bytes_read::cpu06.inst         21248                       # Number of bytes read from this memory
system.mem_ctrls.bytes_read::cpu06.data       2694016                       # Number of bytes read from this memory
system.mem_ctrls.bytes_read::cpu07.inst         13632                       # Number of bytes read from this memory
system.mem_ctrls.bytes_read::cpu07.data       2736128                       # Number of bytes read from this memory
system.mem_ctrls.bytes_read::cpu08.inst         23488                       # Number of bytes read from this memory
system.mem_ctrls.bytes_read::cpu08.data       2958912                       # Number of bytes read from this memory
system.mem_ctrls.bytes_read::cpu09.inst         21312                       # Number of bytes read from this memory
system.mem_ctrls.bytes_read::cpu09.data       2908992                       # Number of bytes read from this memory
system.mem_ctrls.bytes_read::cpu10.inst         12736                       # Number of bytes read from this memory
system.mem_ctrls.bytes_read::cpu10.data       2840704                       # Number of bytes read from this memory
system.mem_ctrls.bytes_read::cpu11.inst         17216                       # Number of bytes read from this memory
system.mem_ctrls.bytes_read::cpu11.data       2874944                       # Number of bytes read from this memory
system.mem_ctrls.bytes_read::cpu12.inst         14784                       # Number of bytes read from this memory
system.mem_ctrls.bytes_read::cpu12.data       3042496                       # Number of bytes read from this memory
system.mem_ctrls.bytes_read::cpu13.inst         37504                       # Number of bytes read from this memory
system.mem_ctrls.bytes_read::cpu13.data       2972992                       # Number of bytes read from this memory
system.mem_ctrls.bytes_read::cpu14.inst         13888                       # Number of bytes read from this memory
system.mem_ctrls.bytes_read::cpu14.data       2855936                       # Number of bytes read from this memory
system.mem_ctrls.bytes_read::cpu15.inst         34240                       # Number of bytes read from this memory
system.mem_ctrls.bytes_read::cpu15.data       2870528                       # Number of bytes read from this memory
system.mem_ctrls.bytes_read::total           46470400                       # Number of bytes read from this memory
system.mem_ctrls.bytes_inst_read::cpu00.inst       180992                       # Number of instructions bytes read from this memory
system.mem_ctrls.bytes_inst_read::cpu01.inst        58176                       # Number of instructions bytes read from this memory
system.mem_ctrls.bytes_inst_read::cpu02.inst        12096                       # Number of instructions bytes read from this memory
system.mem_ctrls.bytes_inst_read::cpu03.inst        16192                       # Number of instructions bytes read from this memory
system.mem_ctrls.bytes_inst_read::cpu04.inst        29376                       # Number of instructions bytes read from this memory
system.mem_ctrls.bytes_inst_read::cpu05.inst        16384                       # Number of instructions bytes read from this memory
system.mem_ctrls.bytes_inst_read::cpu06.inst        21248                       # Number of instructions bytes read from this memory
system.mem_ctrls.bytes_inst_read::cpu07.inst        13632                       # Number of instructions bytes read from this memory
system.mem_ctrls.bytes_inst_read::cpu08.inst        23488                       # Number of instructions bytes read from this memory
system.mem_ctrls.bytes_inst_read::cpu09.inst        21312                       # Number of instructions bytes read from this memory
system.mem_ctrls.bytes_inst_read::cpu10.inst        12736                       # Number of instructions bytes read from this memory
system.mem_ctrls.bytes_inst_read::cpu11.inst        17216                       # Number of instructions bytes read from this memory
system.mem_ctrls.bytes_inst_read::cpu12.inst        14784                       # Number of instructions bytes read from this memory
system.mem_ctrls.bytes_inst_read::cpu13.inst        37504                       # Number of instructions bytes read from this memory
system.mem_ctrls.bytes_inst_read::cpu14.inst        13888                       # Number of instructions bytes read from this memory
system.mem_ctrls.bytes_inst_read::cpu15.inst        34240                       # Number of instructions bytes read from this memory
system.mem_ctrls.bytes_inst_read::total        523264                       # Number of instructions bytes read from this memory
system.mem_ctrls.bytes_written::writebacks     32593600                       # Number of bytes written to this memory
system.mem_ctrls.bytes_written::total        32593600                       # Number of bytes written to this memory
system.mem_ctrls.num_reads::cpu00.inst           2828                       # Number of read requests responded to by this memory
system.mem_ctrls.num_reads::cpu00.data          52368                       # Number of read requests responded to by this memory
system.mem_ctrls.num_reads::cpu01.inst            909                       # Number of read requests responded to by this memory
system.mem_ctrls.num_reads::cpu01.data          43432                       # Number of read requests responded to by this memory
system.mem_ctrls.num_reads::cpu02.inst            189                       # Number of read requests responded to by this memory
system.mem_ctrls.num_reads::cpu02.data          40946                       # Number of read requests responded to by this memory
system.mem_ctrls.num_reads::cpu03.inst            253                       # Number of read requests responded to by this memory
system.mem_ctrls.num_reads::cpu03.data          42857                       # Number of read requests responded to by this memory
system.mem_ctrls.num_reads::cpu04.inst            459                       # Number of read requests responded to by this memory
system.mem_ctrls.num_reads::cpu04.data          45041                       # Number of read requests responded to by this memory
system.mem_ctrls.num_reads::cpu05.inst            256                       # Number of read requests responded to by this memory
system.mem_ctrls.num_reads::cpu05.data          43973                       # Number of read requests responded to by this memory
system.mem_ctrls.num_reads::cpu06.inst            332                       # Number of read requests responded to by this memory
system.mem_ctrls.num_reads::cpu06.data          42094                       # Number of read requests responded to by this memory
system.mem_ctrls.num_reads::cpu07.inst            213                       # Number of read requests responded to by this memory
system.mem_ctrls.num_reads::cpu07.data          42752                       # Number of read requests responded to by this memory
system.mem_ctrls.num_reads::cpu08.inst            367                       # Number of read requests responded to by this memory
system.mem_ctrls.num_reads::cpu08.data          46233                       # Number of read requests responded to by this memory
system.mem_ctrls.num_reads::cpu09.inst            333                       # Number of read requests responded to by this memory
system.mem_ctrls.num_reads::cpu09.data          45453                       # Number of read requests responded to by this memory
system.mem_ctrls.num_reads::cpu10.inst            199                       # Number of read requests responded to by this memory
system.mem_ctrls.num_reads::cpu10.data          44386                       # Number of read requests responded to by this memory
system.mem_ctrls.num_reads::cpu11.inst            269                       # Number of read requests responded to by this memory
system.mem_ctrls.num_reads::cpu11.data          44921                       # Number of read requests responded to by this memory
system.mem_ctrls.num_reads::cpu12.inst            231                       # Number of read requests responded to by this memory
system.mem_ctrls.num_reads::cpu12.data          47539                       # Number of read requests responded to by this memory
system.mem_ctrls.num_reads::cpu13.inst            586                       # Number of read requests responded to by this memory
system.mem_ctrls.num_reads::cpu13.data          46453                       # Number of read requests responded to by this memory
system.mem_ctrls.num_reads::cpu14.inst            217                       # Number of read requests responded to by this memory
system.mem_ctrls.num_reads::cpu14.data          44624                       # Number of read requests responded to by this memory
system.mem_ctrls.num_reads::cpu15.inst            535                       # Number of read requests responded to by this memory
system.mem_ctrls.num_reads::cpu15.data          44852                       # Number of read requests responded to by this memory
system.mem_ctrls.num_reads::total              726100                       # Number of read requests responded to by this memory
system.mem_ctrls.num_writes::writebacks        509275                       # Number of write requests responded to by this memory
system.mem_ctrls.num_writes::total             509275                       # Number of write requests responded to by this memory
system.mem_ctrls.bw_read::cpu00.inst          7541871                       # Total read bandwidth from this memory (bytes/s)
system.mem_ctrls.bw_read::cpu00.data        139657956                       # Total read bandwidth from this memory (bytes/s)
system.mem_ctrls.bw_read::cpu01.inst          2424173                       # Total read bandwidth from this memory (bytes/s)
system.mem_ctrls.bw_read::cpu01.data        115826924                       # Total read bandwidth from this memory (bytes/s)
system.mem_ctrls.bw_read::cpu02.inst           504036                       # Total read bandwidth from this memory (bytes/s)
system.mem_ctrls.bw_read::cpu02.data        109197118                       # Total read bandwidth from this memory (bytes/s)
system.mem_ctrls.bw_read::cpu03.inst           674715                       # Total read bandwidth from this memory (bytes/s)
system.mem_ctrls.bw_read::cpu03.data        114293481                       # Total read bandwidth from this memory (bytes/s)
system.mem_ctrls.bw_read::cpu04.inst          1224087                       # Total read bandwidth from this memory (bytes/s)
system.mem_ctrls.bw_read::cpu04.data        120117896                       # Total read bandwidth from this memory (bytes/s)
system.mem_ctrls.bw_read::cpu05.inst           682715                       # Total read bandwidth from this memory (bytes/s)
system.mem_ctrls.bw_read::cpu05.data        117269693                       # Total read bandwidth from this memory (bytes/s)
system.mem_ctrls.bw_read::cpu06.inst           885396                       # Total read bandwidth from this memory (bytes/s)
system.mem_ctrls.bw_read::cpu06.data        112258669                       # Total read bandwidth from this memory (bytes/s)
system.mem_ctrls.bw_read::cpu07.inst           568040                       # Total read bandwidth from this memory (bytes/s)
system.mem_ctrls.bw_read::cpu07.data        114013461                       # Total read bandwidth from this memory (bytes/s)
system.mem_ctrls.bw_read::cpu08.inst           978736                       # Total read bandwidth from this memory (bytes/s)
system.mem_ctrls.bw_read::cpu08.data        123296789                       # Total read bandwidth from this memory (bytes/s)
system.mem_ctrls.bw_read::cpu09.inst           888063                       # Total read bandwidth from this memory (bytes/s)
system.mem_ctrls.bw_read::cpu09.data        121216641                       # Total read bandwidth from this memory (bytes/s)
system.mem_ctrls.bw_read::cpu10.inst           530704                       # Total read bandwidth from this memory (bytes/s)
system.mem_ctrls.bw_read::cpu10.data        118371105                       # Total read bandwidth from this memory (bytes/s)
system.mem_ctrls.bw_read::cpu11.inst           717384                       # Total read bandwidth from this memory (bytes/s)
system.mem_ctrls.bw_read::cpu11.data        119797873                       # Total read bandwidth from this memory (bytes/s)
system.mem_ctrls.bw_read::cpu12.inst           616044                       # Total read bandwidth from this memory (bytes/s)
system.mem_ctrls.bw_read::cpu12.data        126779704                       # Total read bandwidth from this memory (bytes/s)
system.mem_ctrls.bw_read::cpu13.inst          1562778                       # Total read bandwidth from this memory (bytes/s)
system.mem_ctrls.bw_read::cpu13.data        123883498                       # Total read bandwidth from this memory (bytes/s)
system.mem_ctrls.bw_read::cpu14.inst           578708                       # Total read bandwidth from this memory (bytes/s)
system.mem_ctrls.bw_read::cpu14.data        119005817                       # Total read bandwidth from this memory (bytes/s)
system.mem_ctrls.bw_read::cpu15.inst          1426768                       # Total read bandwidth from this memory (bytes/s)
system.mem_ctrls.bw_read::cpu15.data        119613860                       # Total read bandwidth from this memory (bytes/s)
system.mem_ctrls.bw_read::total            1936404706                       # Total read bandwidth from this memory (bytes/s)
system.mem_ctrls.bw_inst_read::cpu00.inst      7541871                       # Instruction read bandwidth from this memory (bytes/s)
system.mem_ctrls.bw_inst_read::cpu01.inst      2424173                       # Instruction read bandwidth from this memory (bytes/s)
system.mem_ctrls.bw_inst_read::cpu02.inst       504036                       # Instruction read bandwidth from this memory (bytes/s)
system.mem_ctrls.bw_inst_read::cpu03.inst       674715                       # Instruction read bandwidth from this memory (bytes/s)
system.mem_ctrls.bw_inst_read::cpu04.inst      1224087                       # Instruction read bandwidth from this memory (bytes/s)
system.mem_ctrls.bw_inst_read::cpu05.inst       682715                       # Instruction read bandwidth from this memory (bytes/s)
system.mem_ctrls.bw_inst_read::cpu06.inst       885396                       # Instruction read bandwidth from this memory (bytes/s)
system.mem_ctrls.bw_inst_read::cpu07.inst       568040                       # Instruction read bandwidth from this memory (bytes/s)
system.mem_ctrls.bw_inst_read::cpu08.inst       978736                       # Instruction read bandwidth from this memory (bytes/s)
system.mem_ctrls.bw_inst_read::cpu09.inst       888063                       # Instruction read bandwidth from this memory (bytes/s)
system.mem_ctrls.bw_inst_read::cpu10.inst       530704                       # Instruction read bandwidth from this memory (bytes/s)
system.mem_ctrls.bw_inst_read::cpu11.inst       717384                       # Instruction read bandwidth from this memory (bytes/s)
system.mem_ctrls.bw_inst_read::cpu12.inst       616044                       # Instruction read bandwidth from this memory (bytes/s)
system.mem_ctrls.bw_inst_read::cpu13.inst      1562778                       # Instruction read bandwidth from this memory (bytes/s)
system.mem_ctrls.bw_inst_read::cpu14.inst       578708                       # Instruction read bandwidth from this memory (bytes/s)
system.mem_ctrls.bw_inst_read::cpu15.inst      1426768                       # Instruction read bandwidth from this memory (bytes/s)
system.mem_ctrls.bw_inst_read::total         21804221                       # Instruction read bandwidth from this memory (bytes/s)
system.mem_ctrls.bw_write::writebacks      1358163486                       # Write bandwidth from this memory (bytes/s)
system.mem_ctrls.bw_write::total           1358163486                       # Write bandwidth from this memory (bytes/s)
system.mem_ctrls.bw_total::writebacks      1358163486                       # Total bandwidth to/from this memory (bytes/s)
system.mem_ctrls.bw_total::cpu00.inst         7541871                       # Total bandwidth to/from this memory (bytes/s)
system.mem_ctrls.bw_total::cpu00.data       139657956                       # Total bandwidth to/from this memory (bytes/s)
system.mem_ctrls.bw_total::cpu01.inst         2424173                       # Total bandwidth to/from this memory (bytes/s)
system.mem_ctrls.bw_total::cpu01.data       115826924                       # Total bandwidth to/from this memory (bytes/s)
system.mem_ctrls.bw_total::cpu02.inst          504036                       # Total bandwidth to/from this memory (bytes/s)
system.mem_ctrls.bw_total::cpu02.data       109197118                       # Total bandwidth to/from this memory (bytes/s)
system.mem_ctrls.bw_total::cpu03.inst          674715                       # Total bandwidth to/from this memory (bytes/s)
system.mem_ctrls.bw_total::cpu03.data       114293481                       # Total bandwidth to/from this memory (bytes/s)
system.mem_ctrls.bw_total::cpu04.inst         1224087                       # Total bandwidth to/from this memory (bytes/s)
system.mem_ctrls.bw_total::cpu04.data       120117896                       # Total bandwidth to/from this memory (bytes/s)
system.mem_ctrls.bw_total::cpu05.inst          682715                       # Total bandwidth to/from this memory (bytes/s)
system.mem_ctrls.bw_total::cpu05.data       117269693                       # Total bandwidth to/from this memory (bytes/s)
system.mem_ctrls.bw_total::cpu06.inst          885396                       # Total bandwidth to/from this memory (bytes/s)
system.mem_ctrls.bw_total::cpu06.data       112258669                       # Total bandwidth to/from this memory (bytes/s)
system.mem_ctrls.bw_total::cpu07.inst          568040                       # Total bandwidth to/from this memory (bytes/s)
system.mem_ctrls.bw_total::cpu07.data       114013461                       # Total bandwidth to/from this memory (bytes/s)
system.mem_ctrls.bw_total::cpu08.inst          978736                       # Total bandwidth to/from this memory (bytes/s)
system.mem_ctrls.bw_total::cpu08.data       123296789                       # Total bandwidth to/from this memory (bytes/s)
system.mem_ctrls.bw_total::cpu09.inst          888063                       # Total bandwidth to/from this memory (bytes/s)
system.mem_ctrls.bw_total::cpu09.data       121216641                       # Total bandwidth to/from this memory (bytes/s)
system.mem_ctrls.bw_total::cpu10.inst          530704                       # Total bandwidth to/from this memory (bytes/s)
system.mem_ctrls.bw_total::cpu10.data       118371105                       # Total bandwidth to/from this memory (bytes/s)
system.mem_ctrls.bw_total::cpu11.inst          717384                       # Total bandwidth to/from this memory (bytes/s)
system.mem_ctrls.bw_total::cpu11.data       119797873                       # Total bandwidth to/from this memory (bytes/s)
system.mem_ctrls.bw_total::cpu12.inst          616044                       # Total bandwidth to/from this memory (bytes/s)
system.mem_ctrls.bw_total::cpu12.data       126779704                       # Total bandwidth to/from this memory (bytes/s)
system.mem_ctrls.bw_total::cpu13.inst         1562778                       # Total bandwidth to/from this memory (bytes/s)
system.mem_ctrls.bw_total::cpu13.data       123883498                       # Total bandwidth to/from this memory (bytes/s)
system.mem_ctrls.bw_total::cpu14.inst          578708                       # Total bandwidth to/from this memory (bytes/s)
system.mem_ctrls.bw_total::cpu14.data       119005817                       # Total bandwidth to/from this memory (bytes/s)
system.mem_ctrls.bw_total::cpu15.inst         1426768                       # Total bandwidth to/from this memory (bytes/s)
system.mem_ctrls.bw_total::cpu15.data       119613860                       # Total bandwidth to/from this memory (bytes/s)
system.mem_ctrls.bw_total::total           3294568192                       # Total bandwidth to/from this memory (bytes/s)
system.cpu00.branchPred.lookups                583617                       # Number of BP lookups
system.cpu00.branchPred.condPredicted          468149                       # Number of conditional branches predicted
system.cpu00.branchPred.condIncorrect           11287                       # Number of conditional branches incorrect
system.cpu00.branchPred.BTBLookups             386312                       # Number of BTB lookups
system.cpu00.branchPred.BTBHits                272619                       # Number of BTB hits
system.cpu00.branchPred.BTBCorrect                  0                       # Number of correct BTB predictions (this stat may not work properly.
system.cpu00.branchPred.BTBHitPct           70.569643                       # BTB Hit Percentage
system.cpu00.branchPred.usedRAS                 45320                       # Number of times the RAS was used to get a target.
system.cpu00.branchPred.RASInCorrect               90                       # Number of incorrect RAS predictions.
system.cpu00.branchPred.indirectLookups          8883                       # Number of indirect predictor lookups.
system.cpu00.branchPred.indirectHits             8024                       # Number of indirect target hits.
system.cpu00.branchPred.indirectMisses            859                       # Number of indirect misses.
system.cpu00.branchPredindirectMispredicted          259                       # Number of mispredicted indirect branches.
system.cpu_voltage_domain.voltage                   1                       # Voltage in Volts
system.cpu_clk_domain.clock                      1161                       # Clock period in ticks
system.cpu00.dtb.fetch_hits                         0                       # ITB hits
system.cpu00.dtb.fetch_misses                       0                       # ITB misses
system.cpu00.dtb.fetch_acv                          0                       # ITB acv
system.cpu00.dtb.fetch_accesses                     0                       # ITB accesses
system.cpu00.dtb.read_hits                    5817198                       # DTB read hits
system.cpu00.dtb.read_misses                     8477                       # DTB read misses
system.cpu00.dtb.read_acv                           5                       # DTB read access violations
system.cpu00.dtb.read_accesses                5825675                       # DTB read accesses
system.cpu00.dtb.write_hits                    650161                       # DTB write hits
system.cpu00.dtb.write_misses                   10045                       # DTB write misses
system.cpu00.dtb.write_acv                          0                       # DTB write access violations
system.cpu00.dtb.write_accesses                660206                       # DTB write accesses
system.cpu00.dtb.data_hits                    6467359                       # DTB hits
system.cpu00.dtb.data_misses                    18522                       # DTB misses
system.cpu00.dtb.data_acv                           5                       # DTB access violations
system.cpu00.dtb.data_accesses                6485881                       # DTB accesses
system.cpu00.itb.fetch_hits                    840404                       # ITB hits
system.cpu00.itb.fetch_misses                     234                       # ITB misses
system.cpu00.itb.fetch_acv                          0                       # ITB acv
system.cpu00.itb.fetch_accesses                840638                       # ITB accesses
system.cpu00.itb.read_hits                          0                       # DTB read hits
system.cpu00.itb.read_misses                        0                       # DTB read misses
system.cpu00.itb.read_acv                           0                       # DTB read access violations
system.cpu00.itb.read_accesses                      0                       # DTB read accesses
system.cpu00.itb.write_hits                         0                       # DTB write hits
system.cpu00.itb.write_misses                       0                       # DTB write misses
system.cpu00.itb.write_acv                          0                       # DTB write access violations
system.cpu00.itb.write_accesses                     0                       # DTB write accesses
system.cpu00.itb.data_hits                          0                       # DTB hits
system.cpu00.itb.data_misses                        0                       # DTB misses
system.cpu00.itb.data_acv                           0                       # DTB access violations
system.cpu00.itb.data_accesses                      0                       # DTB accesses
system.cpu00.workload.num_syscalls              66236                       # Number of system calls
system.cpu00.numCycles                       19587176                       # number of cpu cycles simulated
system.cpu00.numWorkItemsStarted                    0                       # number of work items this cpu started
system.cpu00.numWorkItemsCompleted                  0                       # number of work items this cpu completed
system.cpu00.fetch.icacheStallCycles           227069                       # Number of cycles fetch is stalled on an Icache miss
system.cpu00.fetch.Insts                      9333750                       # Number of instructions fetch has processed
system.cpu00.fetch.Branches                    583617                       # Number of branches that fetch encountered
system.cpu00.fetch.predictedBranches           325963                       # Number of branches that fetch has predicted taken
system.cpu00.fetch.Cycles                    18883153                       # Number of cycles fetch has run and was not squashing or blocked
system.cpu00.fetch.SquashCycles                 29778                       # Number of cycles fetch has spent squashing
system.cpu00.fetch.TlbCycles                       51                       # Number of cycles fetch has spent waiting for tlb
system.cpu00.fetch.MiscStallCycles                775                       # Number of cycles fetch has spent waiting on interrupts, or bad addresses, or out of MSHRs
system.cpu00.fetch.PendingTrapStallCycles        10013                       # Number of stall cycles due to pending traps
system.cpu00.fetch.IcacheWaitRetryStallCycles         1689                       # Number of stall cycles due to full MSHR
system.cpu00.fetch.CacheLines                  840404                       # Number of cache lines fetched
system.cpu00.fetch.IcacheSquashes                3922                       # Number of outstanding Icache misses that were squashed
system.cpu00.fetch.rateDist::samples         19137639                       # Number of instructions fetched each cycle (Total)
system.cpu00.fetch.rateDist::mean            0.487717                       # Number of instructions fetched each cycle (Total)
system.cpu00.fetch.rateDist::stdev           1.767476                       # Number of instructions fetched each cycle (Total)
system.cpu00.fetch.rateDist::underflows             0      0.00%      0.00% # Number of instructions fetched each cycle (Total)
system.cpu00.fetch.rateDist::0               17533098     91.62%     91.62% # Number of instructions fetched each cycle (Total)
system.cpu00.fetch.rateDist::1                 121263      0.63%     92.25% # Number of instructions fetched each cycle (Total)
system.cpu00.fetch.rateDist::2                 130900      0.68%     92.93% # Number of instructions fetched each cycle (Total)
system.cpu00.fetch.rateDist::3                 120644      0.63%     93.56% # Number of instructions fetched each cycle (Total)
system.cpu00.fetch.rateDist::4                 157339      0.82%     94.39% # Number of instructions fetched each cycle (Total)
system.cpu00.fetch.rateDist::5                 108326      0.57%     94.95% # Number of instructions fetched each cycle (Total)
system.cpu00.fetch.rateDist::6                 107381      0.56%     95.51% # Number of instructions fetched each cycle (Total)
system.cpu00.fetch.rateDist::7                  96021      0.50%     96.01% # Number of instructions fetched each cycle (Total)
system.cpu00.fetch.rateDist::8                 762667      3.99%    100.00% # Number of instructions fetched each cycle (Total)
system.cpu00.fetch.rateDist::overflows              0      0.00%    100.00% # Number of instructions fetched each cycle (Total)
system.cpu00.fetch.rateDist::min_value              0                       # Number of instructions fetched each cycle (Total)
system.cpu00.fetch.rateDist::max_value              8                       # Number of instructions fetched each cycle (Total)
system.cpu00.fetch.rateDist::total           19137639                       # Number of instructions fetched each cycle (Total)
system.cpu00.fetch.branchRate                0.029796                       # Number of branch fetches per cycle
system.cpu00.fetch.rate                      0.476524                       # Number of inst fetches per cycle
system.cpu00.decode.IdleCycles                 393462                       # Number of cycles decode is idle
system.cpu00.decode.BlockedCycles            17562434                       # Number of cycles decode is blocked
system.cpu00.decode.RunCycles                  623094                       # Number of cycles decode is running
system.cpu00.decode.UnblockCycles              546287                       # Number of cycles decode is unblocking
system.cpu00.decode.SquashCycles                12362                       # Number of cycles decode is squashing
system.cpu00.decode.BranchResolved              54876                       # Number of times decode resolved a branch
system.cpu00.decode.BranchMispred                2564                       # Number of times decode detected a branch misprediction
system.cpu00.decode.DecodedInsts              9027885                       # Number of instructions handled by decode
system.cpu00.decode.SquashedInsts               10272                       # Number of squashed instructions handled by decode
system.cpu00.rename.SquashCycles                12362                       # Number of cycles rename is squashing
system.cpu00.rename.IdleCycles                 581989                       # Number of cycles rename is idle
system.cpu00.rename.BlockCycles              11549924                       # Number of cycles rename is blocking
system.cpu00.rename.serializeStallCycles       823435                       # count of cycles rename stalled for serializing inst
system.cpu00.rename.RunCycles                  916373                       # Number of cycles rename is running
system.cpu00.rename.UnblockCycles             5253556                       # Number of cycles rename is unblocking
system.cpu00.rename.RenamedInsts              8954672                       # Number of instructions processed by rename
system.cpu00.rename.ROBFullEvents                5342                       # Number of times rename has blocked due to ROB full
system.cpu00.rename.IQFullEvents              1458037                       # Number of times rename has blocked due to IQ full
system.cpu00.rename.LQFullEvents              2813489                       # Number of times rename has blocked due to LQ full
system.cpu00.rename.SQFullEvents              1353817                       # Number of times rename has blocked due to SQ full
system.cpu00.rename.RenamedOperands           7170643                       # Number of destination operands rename has renamed
system.cpu00.rename.RenameLookups            13248280                       # Number of register rename lookups that rename has made
system.cpu00.rename.int_rename_lookups        6922170                       # Number of integer rename lookups
system.cpu00.rename.fp_rename_lookups         6324739                       # Number of floating rename lookups
system.cpu00.rename.CommittedMaps             6840478                       # Number of HB maps that are committed
system.cpu00.rename.UndoneMaps                 330165                       # Number of HB maps that are undone due to squashing
system.cpu00.rename.serializingInsts            14460                       # count of serializing insts renamed
system.cpu00.rename.tempSerializingInsts        13000                       # count of temporary serializing insts renamed
system.cpu00.rename.skidInsts                 3347503                       # count of insts added to the skid buffer
system.cpu00.memDep0.insertedLoads            2316597                       # Number of loads inserted to the mem dependence unit.
system.cpu00.memDep0.insertedStores            690468                       # Number of stores inserted to the mem dependence unit.
system.cpu00.memDep0.conflictingLoads           92576                       # Number of conflicting loads.
system.cpu00.memDep0.conflictingStores          68390                       # Number of conflicting stores.
system.cpu00.iq.iqInstsAdded                  8735980                       # Number of instructions added to the IQ (excludes non-spec)
system.cpu00.iq.iqNonSpecInstsAdded             19489                       # Number of non-speculative instructions added to the IQ
system.cpu00.iq.iqInstsIssued                12165021                       # Number of instructions issued
system.cpu00.iq.iqSquashedInstsIssued            8565                       # Number of squashed instructions issued
system.cpu00.iq.iqSquashedInstsExamined        416536                       # Number of squashed instructions iterated over during squash; mainly for profiling
system.cpu00.iq.iqSquashedOperandsExamined       249005                       # Number of squashed operands that are examined and possibly removed from graph
system.cpu00.iq.iqSquashedNonSpecRemoved         2610                       # Number of squashed non-spec instructions that were removed
system.cpu00.iq.issued_per_cycle::samples     19137639                       # Number of insts issued each cycle
system.cpu00.iq.issued_per_cycle::mean       0.635659                       # Number of insts issued each cycle
system.cpu00.iq.issued_per_cycle::stdev      1.477808                       # Number of insts issued each cycle
system.cpu00.iq.issued_per_cycle::underflows            0      0.00%      0.00% # Number of insts issued each cycle
system.cpu00.iq.issued_per_cycle::0          14972735     78.24%     78.24% # Number of insts issued each cycle
system.cpu00.iq.issued_per_cycle::1           1316743      6.88%     85.12% # Number of insts issued each cycle
system.cpu00.iq.issued_per_cycle::2            752960      3.93%     89.05% # Number of insts issued each cycle
system.cpu00.iq.issued_per_cycle::3            421543      2.20%     91.25% # Number of insts issued each cycle
system.cpu00.iq.issued_per_cycle::4            972027      5.08%     96.33% # Number of insts issued each cycle
system.cpu00.iq.issued_per_cycle::5            323672      1.69%     98.03% # Number of insts issued each cycle
system.cpu00.iq.issued_per_cycle::6            178952      0.94%     98.96% # Number of insts issued each cycle
system.cpu00.iq.issued_per_cycle::7             94507      0.49%     99.45% # Number of insts issued each cycle
system.cpu00.iq.issued_per_cycle::8            104500      0.55%    100.00% # Number of insts issued each cycle
system.cpu00.iq.issued_per_cycle::overflows            0      0.00%    100.00% # Number of insts issued each cycle
system.cpu00.iq.issued_per_cycle::min_value            0                       # Number of insts issued each cycle
system.cpu00.iq.issued_per_cycle::max_value            8                       # Number of insts issued each cycle
system.cpu00.iq.issued_per_cycle::total      19137639                       # Number of insts issued each cycle
system.cpu00.iq.fu_full::No_OpClass                 0      0.00%      0.00% # attempts to use FU when none available
system.cpu00.iq.fu_full::IntAlu                  9556      0.93%      0.93% # attempts to use FU when none available
system.cpu00.iq.fu_full::IntMult                    0      0.00%      0.93% # attempts to use FU when none available
system.cpu00.iq.fu_full::IntDiv                     0      0.00%      0.93% # attempts to use FU when none available
system.cpu00.iq.fu_full::FloatAdd               56033      5.45%      6.38% # attempts to use FU when none available
system.cpu00.iq.fu_full::FloatCmp                   0      0.00%      6.38% # attempts to use FU when none available
system.cpu00.iq.fu_full::FloatCvt                   0      0.00%      6.38% # attempts to use FU when none available
system.cpu00.iq.fu_full::FloatMult              89855      8.74%     15.11% # attempts to use FU when none available
system.cpu00.iq.fu_full::FloatDiv                  49      0.00%     15.12% # attempts to use FU when none available
system.cpu00.iq.fu_full::FloatSqrt                  0      0.00%     15.12% # attempts to use FU when none available
system.cpu00.iq.fu_full::SimdAdd                    0      0.00%     15.12% # attempts to use FU when none available
system.cpu00.iq.fu_full::SimdAddAcc                 0      0.00%     15.12% # attempts to use FU when none available
system.cpu00.iq.fu_full::SimdAlu                    0      0.00%     15.12% # attempts to use FU when none available
system.cpu00.iq.fu_full::SimdCmp                    0      0.00%     15.12% # attempts to use FU when none available
system.cpu00.iq.fu_full::SimdCvt                    0      0.00%     15.12% # attempts to use FU when none available
system.cpu00.iq.fu_full::SimdMisc                   0      0.00%     15.12% # attempts to use FU when none available
system.cpu00.iq.fu_full::SimdMult                   0      0.00%     15.12% # attempts to use FU when none available
system.cpu00.iq.fu_full::SimdMultAcc                0      0.00%     15.12% # attempts to use FU when none available
system.cpu00.iq.fu_full::SimdShift                  0      0.00%     15.12% # attempts to use FU when none available
system.cpu00.iq.fu_full::SimdShiftAcc               0      0.00%     15.12% # attempts to use FU when none available
system.cpu00.iq.fu_full::SimdSqrt                   0      0.00%     15.12% # attempts to use FU when none available
system.cpu00.iq.fu_full::SimdFloatAdd               0      0.00%     15.12% # attempts to use FU when none available
system.cpu00.iq.fu_full::SimdFloatAlu               0      0.00%     15.12% # attempts to use FU when none available
system.cpu00.iq.fu_full::SimdFloatCmp               0      0.00%     15.12% # attempts to use FU when none available
system.cpu00.iq.fu_full::SimdFloatCvt               0      0.00%     15.12% # attempts to use FU when none available
system.cpu00.iq.fu_full::SimdFloatDiv               0      0.00%     15.12% # attempts to use FU when none available
system.cpu00.iq.fu_full::SimdFloatMisc              0      0.00%     15.12% # attempts to use FU when none available
system.cpu00.iq.fu_full::SimdFloatMult              0      0.00%     15.12% # attempts to use FU when none available
system.cpu00.iq.fu_full::SimdFloatMultAcc            0      0.00%     15.12% # attempts to use FU when none available
system.cpu00.iq.fu_full::SimdFloatSqrt              0      0.00%     15.12% # attempts to use FU when none available
system.cpu00.iq.fu_full::MemRead               848955     82.55%     97.66% # attempts to use FU when none available
system.cpu00.iq.fu_full::MemWrite               24015      2.34%    100.00% # attempts to use FU when none available
system.cpu00.iq.fu_full::IprAccess                  0      0.00%    100.00% # attempts to use FU when none available
system.cpu00.iq.fu_full::InstPrefetch               0      0.00%    100.00% # attempts to use FU when none available
system.cpu00.iq.FU_type_0::No_OpClass               0      0.00%      0.00% # Type of FU issued
system.cpu00.iq.FU_type_0::IntAlu             2662064     21.88%     21.88% # Type of FU issued
system.cpu00.iq.FU_type_0::IntMult                898      0.01%     21.89% # Type of FU issued
system.cpu00.iq.FU_type_0::IntDiv                   0      0.00%     21.89% # Type of FU issued
system.cpu00.iq.FU_type_0::FloatAdd           2140107     17.59%     39.48% # Type of FU issued
system.cpu00.iq.FU_type_0::FloatCmp            114813      0.94%     40.43% # Type of FU issued
system.cpu00.iq.FU_type_0::FloatCvt                 0      0.00%     40.43% # Type of FU issued
system.cpu00.iq.FU_type_0::FloatMult           738371      6.07%     46.50% # Type of FU issued
system.cpu00.iq.FU_type_0::FloatDiv              9052      0.07%     46.57% # Type of FU issued
system.cpu00.iq.FU_type_0::FloatSqrt                0      0.00%     46.57% # Type of FU issued
system.cpu00.iq.FU_type_0::SimdAdd                  0      0.00%     46.57% # Type of FU issued
system.cpu00.iq.FU_type_0::SimdAddAcc               0      0.00%     46.57% # Type of FU issued
system.cpu00.iq.FU_type_0::SimdAlu                  0      0.00%     46.57% # Type of FU issued
system.cpu00.iq.FU_type_0::SimdCmp                  0      0.00%     46.57% # Type of FU issued
system.cpu00.iq.FU_type_0::SimdCvt                  0      0.00%     46.57% # Type of FU issued
system.cpu00.iq.FU_type_0::SimdMisc                 0      0.00%     46.57% # Type of FU issued
system.cpu00.iq.FU_type_0::SimdMult                 0      0.00%     46.57% # Type of FU issued
system.cpu00.iq.FU_type_0::SimdMultAcc              0      0.00%     46.57% # Type of FU issued
system.cpu00.iq.FU_type_0::SimdShift                0      0.00%     46.57% # Type of FU issued
system.cpu00.iq.FU_type_0::SimdShiftAcc             0      0.00%     46.57% # Type of FU issued
system.cpu00.iq.FU_type_0::SimdSqrt                 0      0.00%     46.57% # Type of FU issued
system.cpu00.iq.FU_type_0::SimdFloatAdd             0      0.00%     46.57% # Type of FU issued
system.cpu00.iq.FU_type_0::SimdFloatAlu             0      0.00%     46.57% # Type of FU issued
system.cpu00.iq.FU_type_0::SimdFloatCmp             0      0.00%     46.57% # Type of FU issued
system.cpu00.iq.FU_type_0::SimdFloatCvt             0      0.00%     46.57% # Type of FU issued
system.cpu00.iq.FU_type_0::SimdFloatDiv             0      0.00%     46.57% # Type of FU issued
system.cpu00.iq.FU_type_0::SimdFloatMisc            0      0.00%     46.57% # Type of FU issued
system.cpu00.iq.FU_type_0::SimdFloatMult            0      0.00%     46.57% # Type of FU issued
system.cpu00.iq.FU_type_0::SimdFloatMultAcc            0      0.00%     46.57% # Type of FU issued
system.cpu00.iq.FU_type_0::SimdFloatSqrt            0      0.00%     46.57% # Type of FU issued
system.cpu00.iq.FU_type_0::MemRead            5837050     47.98%     94.55% # Type of FU issued
system.cpu00.iq.FU_type_0::MemWrite            662666      5.45%    100.00% # Type of FU issued
system.cpu00.iq.FU_type_0::IprAccess                0      0.00%    100.00% # Type of FU issued
system.cpu00.iq.FU_type_0::InstPrefetch             0      0.00%    100.00% # Type of FU issued
system.cpu00.iq.FU_type_0::total             12165021                       # Type of FU issued
system.cpu00.iq.rate                         0.621071                       # Inst issue rate
system.cpu00.iq.fu_busy_cnt                   1028463                       # FU busy when requested
system.cpu00.iq.fu_busy_rate                 0.084543                       # FU busy rate (busy events/executed inst)
system.cpu00.iq.int_inst_queue_reads         27140541                       # Number of integer instruction queue reads
system.cpu00.iq.int_inst_queue_writes         3800684                       # Number of integer instruction queue writes
system.cpu00.iq.int_inst_queue_wakeup_accesses      3300996                       # Number of integer instruction queue wakeup accesses
system.cpu00.iq.fp_inst_queue_reads          17364168                       # Number of floating instruction queue reads
system.cpu00.iq.fp_inst_queue_writes          5373020                       # Number of floating instruction queue writes
system.cpu00.iq.fp_inst_queue_wakeup_accesses      5272065                       # Number of floating instruction queue wakeup accesses
system.cpu00.iq.int_alu_accesses              4083553                       # Number of integer alu accesses
system.cpu00.iq.fp_alu_accesses               9109931                       # Number of floating point alu accesses
system.cpu00.iew.lsq.thread0.forwLoads          39582                       # Number of loads that had data forwarded from stores
system.cpu00.iew.lsq.thread0.invAddrLoads            0                       # Number of loads ignored due to an invalid address
system.cpu00.iew.lsq.thread0.squashedLoads        95663                       # Number of loads squashed
system.cpu00.iew.lsq.thread0.ignoredResponses          164                       # Number of memory responses ignored because the instruction is squashed
system.cpu00.iew.lsq.thread0.memOrderViolation         1740                       # Number of memory ordering violations
system.cpu00.iew.lsq.thread0.squashedStores        64592                       # Number of stores squashed
system.cpu00.iew.lsq.thread0.invAddrSwpfs            0                       # Number of software prefetches ignored due to an invalid address
system.cpu00.iew.lsq.thread0.blockedLoads            0                       # Number of blocked loads due to partial load-store forwarding
system.cpu00.iew.lsq.thread0.rescheduledLoads         1065                       # Number of loads that were rescheduled
system.cpu00.iew.lsq.thread0.cacheBlocked      3661415                       # Number of times an access to memory failed due to the cache being blocked
system.cpu00.iew.iewIdleCycles                      0                       # Number of cycles IEW is idle
system.cpu00.iew.iewSquashCycles                12362                       # Number of cycles IEW is squashing
system.cpu00.iew.iewBlockCycles               6876674                       # Number of cycles IEW is blocking
system.cpu00.iew.iewUnblockCycles             3759096                       # Number of cycles IEW is unblocking
system.cpu00.iew.iewDispatchedInsts           8899077                       # Number of instructions dispatched to IQ
system.cpu00.iew.iewDispSquashedInsts            2168                       # Number of squashed instructions skipped by dispatch
system.cpu00.iew.iewDispLoadInsts             2316597                       # Number of dispatched load instructions
system.cpu00.iew.iewDispStoreInsts             690468                       # Number of dispatched store instructions
system.cpu00.iew.iewDispNonSpecInsts            12796                       # Number of dispatched non-speculative instructions
system.cpu00.iew.iewIQFullEvents               117439                       # Number of times the IQ has become full, causing a stall
system.cpu00.iew.iewLSQFullEvents             3530641                       # Number of times the LSQ has become full, causing a stall
system.cpu00.iew.memOrderViolationEvents         1740                       # Number of memory order violations
system.cpu00.iew.predictedTakenIncorrect         4190                       # Number of branches that were predicted taken incorrectly
system.cpu00.iew.predictedNotTakenIncorrect         5798                       # Number of branches that were predicted not taken incorrectly
system.cpu00.iew.branchMispredicts               9988                       # Number of branch mispredicts detected at execute
system.cpu00.iew.iewExecutedInsts            12148783                       # Number of executed instructions
system.cpu00.iew.iewExecLoadInsts             5825721                       # Number of load instructions executed
system.cpu00.iew.iewExecSquashedInsts           16238                       # Number of squashed instructions skipped in execute
system.cpu00.iew.exec_swp                           0                       # number of swp insts executed
system.cpu00.iew.exec_nop                      143608                       # number of nop insts executed
system.cpu00.iew.exec_refs                    6485943                       # number of memory reference insts executed
system.cpu00.iew.exec_branches                 499323                       # Number of branches executed
system.cpu00.iew.exec_stores                   660222                       # Number of stores executed
system.cpu00.iew.exec_rate                   0.620242                       # Inst execution rate
system.cpu00.iew.wb_sent                      8595895                       # cumulative count of insts sent to commit
system.cpu00.iew.wb_count                     8573061                       # cumulative count of insts written-back
system.cpu00.iew.wb_producers                 5808245                       # num instructions producing a value
system.cpu00.iew.wb_consumers                 7319306                       # num instructions consuming a value
system.cpu00.iew.wb_rate                     0.437687                       # insts written-back per cycle
system.cpu00.iew.wb_fanout                   0.793551                       # average fanout of values written-back
system.cpu00.commit.commitSquashedInsts        417698                       # The number of squashed insts skipped by commit
system.cpu00.commit.commitNonSpecStalls         16879                       # The number of times commit has been forced to stall to communicate backwards
system.cpu00.commit.branchMispredicts            8760                       # The number of times a branch was mispredicted
system.cpu00.commit.committed_per_cycle::samples     19074202                       # Number of insts commited each cycle
system.cpu00.commit.committed_per_cycle::mean     0.443978                       # Number of insts commited each cycle
system.cpu00.commit.committed_per_cycle::stdev     1.605719                       # Number of insts commited each cycle
system.cpu00.commit.committed_per_cycle::underflows            0      0.00%      0.00% # Number of insts commited each cycle
system.cpu00.commit.committed_per_cycle::0     17163192     89.98%     89.98% # Number of insts commited each cycle
system.cpu00.commit.committed_per_cycle::1       424306      2.22%     92.21% # Number of insts commited each cycle
system.cpu00.commit.committed_per_cycle::2       292987      1.54%     93.74% # Number of insts commited each cycle
system.cpu00.commit.committed_per_cycle::3       193874      1.02%     94.76% # Number of insts commited each cycle
system.cpu00.commit.committed_per_cycle::4       135903      0.71%     95.47% # Number of insts commited each cycle
system.cpu00.commit.committed_per_cycle::5       105165      0.55%     96.02% # Number of insts commited each cycle
system.cpu00.commit.committed_per_cycle::6        89200      0.47%     96.49% # Number of insts commited each cycle
system.cpu00.commit.committed_per_cycle::7        84613      0.44%     96.93% # Number of insts commited each cycle
system.cpu00.commit.committed_per_cycle::8       584962      3.07%    100.00% # Number of insts commited each cycle
system.cpu00.commit.committed_per_cycle::overflows            0      0.00%    100.00% # Number of insts commited each cycle
system.cpu00.commit.committed_per_cycle::min_value            0                       # Number of insts commited each cycle
system.cpu00.commit.committed_per_cycle::max_value            8                       # Number of insts commited each cycle
system.cpu00.commit.committed_per_cycle::total     19074202                       # Number of insts commited each cycle
system.cpu00.commit.committedInsts            8468526                       # Number of instructions committed
system.cpu00.commit.committedOps              8468526                       # Number of ops (including micro ops) committed
system.cpu00.commit.swp_count                       0                       # Number of s/w prefetches committed
system.cpu00.commit.refs                      2846810                       # Number of memory references committed
system.cpu00.commit.loads                     2220934                       # Number of loads committed
system.cpu00.commit.membars                      5494                       # Number of memory barriers committed
system.cpu00.commit.branches                   465656                       # Number of branches committed
system.cpu00.commit.fp_insts                  5254286                       # Number of committed floating point instructions.
system.cpu00.commit.int_insts                 5443330                       # Number of committed integer instructions.
system.cpu00.commit.function_calls              33950                       # Number of function calls committed.
system.cpu00.commit.op_class_0::No_OpClass       129594      1.53%      1.53% # Class of committed instruction
system.cpu00.commit.op_class_0::IntAlu        2494615     29.46%     30.99% # Class of committed instruction
system.cpu00.commit.op_class_0::IntMult           770      0.01%     31.00% # Class of committed instruction
system.cpu00.commit.op_class_0::IntDiv              0      0.00%     31.00% # Class of committed instruction
system.cpu00.commit.op_class_0::FloatAdd      2131323     25.17%     56.16% # Class of committed instruction
system.cpu00.commit.op_class_0::FloatCmp       114740      1.35%     57.52% # Class of committed instruction
system.cpu00.commit.op_class_0::FloatCvt            0      0.00%     57.52% # Class of committed instruction
system.cpu00.commit.op_class_0::FloatMult       736165      8.69%     66.21% # Class of committed instruction
system.cpu00.commit.op_class_0::FloatDiv         9014      0.11%     66.32% # Class of committed instruction
system.cpu00.commit.op_class_0::FloatSqrt            0      0.00%     66.32% # Class of committed instruction
system.cpu00.commit.op_class_0::SimdAdd             0      0.00%     66.32% # Class of committed instruction
system.cpu00.commit.op_class_0::SimdAddAcc            0      0.00%     66.32% # Class of committed instruction
system.cpu00.commit.op_class_0::SimdAlu             0      0.00%     66.32% # Class of committed instruction
system.cpu00.commit.op_class_0::SimdCmp             0      0.00%     66.32% # Class of committed instruction
system.cpu00.commit.op_class_0::SimdCvt             0      0.00%     66.32% # Class of committed instruction
system.cpu00.commit.op_class_0::SimdMisc            0      0.00%     66.32% # Class of committed instruction
system.cpu00.commit.op_class_0::SimdMult            0      0.00%     66.32% # Class of committed instruction
system.cpu00.commit.op_class_0::SimdMultAcc            0      0.00%     66.32% # Class of committed instruction
system.cpu00.commit.op_class_0::SimdShift            0      0.00%     66.32% # Class of committed instruction
system.cpu00.commit.op_class_0::SimdShiftAcc            0      0.00%     66.32% # Class of committed instruction
system.cpu00.commit.op_class_0::SimdSqrt            0      0.00%     66.32% # Class of committed instruction
system.cpu00.commit.op_class_0::SimdFloatAdd            0      0.00%     66.32% # Class of committed instruction
system.cpu00.commit.op_class_0::SimdFloatAlu            0      0.00%     66.32% # Class of committed instruction
system.cpu00.commit.op_class_0::SimdFloatCmp            0      0.00%     66.32% # Class of committed instruction
system.cpu00.commit.op_class_0::SimdFloatCvt            0      0.00%     66.32% # Class of committed instruction
system.cpu00.commit.op_class_0::SimdFloatDiv            0      0.00%     66.32% # Class of committed instruction
system.cpu00.commit.op_class_0::SimdFloatMisc            0      0.00%     66.32% # Class of committed instruction
system.cpu00.commit.op_class_0::SimdFloatMult            0      0.00%     66.32% # Class of committed instruction
system.cpu00.commit.op_class_0::SimdFloatMultAcc            0      0.00%     66.32% # Class of committed instruction
system.cpu00.commit.op_class_0::SimdFloatSqrt            0      0.00%     66.32% # Class of committed instruction
system.cpu00.commit.op_class_0::MemRead       2226428     26.29%     92.61% # Class of committed instruction
system.cpu00.commit.op_class_0::MemWrite       625877      7.39%    100.00% # Class of committed instruction
system.cpu00.commit.op_class_0::IprAccess            0      0.00%    100.00% # Class of committed instruction
system.cpu00.commit.op_class_0::InstPrefetch            0      0.00%    100.00% # Class of committed instruction
system.cpu00.commit.op_class_0::total         8468526                       # Class of committed instruction
system.cpu00.commit.bw_lim_events              584962                       # number cycles where commit BW limit reached
system.cpu00.rob.rob_reads                   27341950                       # The number of ROB reads
system.cpu00.rob.rob_writes                  17833370                       # The number of ROB writes
system.cpu00.timesIdled                          9347                       # Number of times that the entire CPU went into an idle state and unscheduled itself
system.cpu00.idleCycles                        449537                       # Total number of cycles that the CPU has spent unscheduled due to idling
system.cpu00.quiesceCycles                    1083188                       # Total number of cycles that CPU has spent quiesced or waiting for an interrupt
system.cpu00.committedInsts                   8338932                       # Number of Instructions Simulated
system.cpu00.committedOps                     8338932                       # Number of Ops (including micro ops) Simulated
system.cpu00.cpi                             2.348883                       # CPI: Cycles Per Instruction
system.cpu00.cpi_total                       2.348883                       # CPI: Total CPI of All Threads
system.cpu00.ipc                             0.425734                       # IPC: Instructions Per Cycle
system.cpu00.ipc_total                       0.425734                       # IPC: Total IPC of All Threads
system.cpu00.int_regfile_reads               10213247                       # number of integer regfile reads
system.cpu00.int_regfile_writes               2323845                       # number of integer regfile writes
system.cpu00.fp_regfile_reads                 6290868                       # number of floating regfile reads
system.cpu00.fp_regfile_writes                4702648                       # number of floating regfile writes
system.cpu00.misc_regfile_reads                 30323                       # number of misc regfile reads
system.cpu00.misc_regfile_writes                13945                       # number of misc regfile writes
system.cpu00.dcache.tags.replacements          337954                       # number of replacements
system.cpu00.dcache.tags.tagsinuse          63.557429                       # Cycle average of tags in use
system.cpu00.dcache.tags.total_refs           1770367                       # Total number of references to valid blocks.
system.cpu00.dcache.tags.sampled_refs          338018                       # Sample count of references to valid blocks.
system.cpu00.dcache.tags.avg_refs            5.237493                       # Average number of references to valid blocks.
system.cpu00.dcache.tags.warmup_cycle        72911961                       # Cycle when the warmup percentage was hit.
system.cpu00.dcache.tags.occ_blocks::cpu00.data    63.557429                       # Average occupied blocks per requestor
system.cpu00.dcache.tags.occ_percent::cpu00.data     0.993085                       # Average percentage of cache occupancy
system.cpu00.dcache.tags.occ_percent::total     0.993085                       # Average percentage of cache occupancy
system.cpu00.dcache.tags.occ_task_id_blocks::1024           64                       # Occupied blocks per task id
system.cpu00.dcache.tags.age_task_id_blocks_1024::0           48                       # Occupied blocks per task id
system.cpu00.dcache.tags.age_task_id_blocks_1024::1           16                       # Occupied blocks per task id
system.cpu00.dcache.tags.occ_task_id_percent::1024            1                       # Percentage of cache occupancy per task id
system.cpu00.dcache.tags.tag_accesses         6062131                       # Number of tag accesses
system.cpu00.dcache.tags.data_accesses        6062131                       # Number of data accesses
system.cpu00.dcache.ReadReq_hits::cpu00.data      1421789                       # number of ReadReq hits
system.cpu00.dcache.ReadReq_hits::total       1421789                       # number of ReadReq hits
system.cpu00.dcache.WriteReq_hits::cpu00.data       326717                       # number of WriteReq hits
system.cpu00.dcache.WriteReq_hits::total       326717                       # number of WriteReq hits
system.cpu00.dcache.LoadLockedReq_hits::cpu00.data         6229                       # number of LoadLockedReq hits
system.cpu00.dcache.LoadLockedReq_hits::total         6229                       # number of LoadLockedReq hits
system.cpu00.dcache.StoreCondReq_hits::cpu00.data         6968                       # number of StoreCondReq hits
system.cpu00.dcache.StoreCondReq_hits::total         6968                       # number of StoreCondReq hits
system.cpu00.dcache.demand_hits::cpu00.data      1748506                       # number of demand (read+write) hits
system.cpu00.dcache.demand_hits::total        1748506                       # number of demand (read+write) hits
system.cpu00.dcache.overall_hits::cpu00.data      1748506                       # number of overall hits
system.cpu00.dcache.overall_hits::total       1748506                       # number of overall hits
system.cpu00.dcache.ReadReq_misses::cpu00.data       804082                       # number of ReadReq misses
system.cpu00.dcache.ReadReq_misses::total       804082                       # number of ReadReq misses
system.cpu00.dcache.WriteReq_misses::cpu00.data       292188                       # number of WriteReq misses
system.cpu00.dcache.WriteReq_misses::total       292188                       # number of WriteReq misses
system.cpu00.dcache.LoadLockedReq_misses::cpu00.data          861                       # number of LoadLockedReq misses
system.cpu00.dcache.LoadLockedReq_misses::total          861                       # number of LoadLockedReq misses
system.cpu00.dcache.StoreCondReq_misses::cpu00.data            3                       # number of StoreCondReq misses
system.cpu00.dcache.StoreCondReq_misses::total            3                       # number of StoreCondReq misses
system.cpu00.dcache.demand_misses::cpu00.data      1096270                       # number of demand (read+write) misses
system.cpu00.dcache.demand_misses::total      1096270                       # number of demand (read+write) misses
system.cpu00.dcache.overall_misses::cpu00.data      1096270                       # number of overall misses
system.cpu00.dcache.overall_misses::total      1096270                       # number of overall misses
system.cpu00.dcache.ReadReq_miss_latency::cpu00.data 118193208696                       # number of ReadReq miss cycles
system.cpu00.dcache.ReadReq_miss_latency::total 118193208696                       # number of ReadReq miss cycles
system.cpu00.dcache.WriteReq_miss_latency::cpu00.data  62672268055                       # number of WriteReq miss cycles
system.cpu00.dcache.WriteReq_miss_latency::total  62672268055                       # number of WriteReq miss cycles
system.cpu00.dcache.LoadLockedReq_miss_latency::cpu00.data     11455587                       # number of LoadLockedReq miss cycles
system.cpu00.dcache.LoadLockedReq_miss_latency::total     11455587                       # number of LoadLockedReq miss cycles
system.cpu00.dcache.StoreCondReq_miss_latency::cpu00.data        35991                       # number of StoreCondReq miss cycles
system.cpu00.dcache.StoreCondReq_miss_latency::total        35991                       # number of StoreCondReq miss cycles
system.cpu00.dcache.demand_miss_latency::cpu00.data 180865476751                       # number of demand (read+write) miss cycles
system.cpu00.dcache.demand_miss_latency::total 180865476751                       # number of demand (read+write) miss cycles
system.cpu00.dcache.overall_miss_latency::cpu00.data 180865476751                       # number of overall miss cycles
system.cpu00.dcache.overall_miss_latency::total 180865476751                       # number of overall miss cycles
system.cpu00.dcache.ReadReq_accesses::cpu00.data      2225871                       # number of ReadReq accesses(hits+misses)
system.cpu00.dcache.ReadReq_accesses::total      2225871                       # number of ReadReq accesses(hits+misses)
system.cpu00.dcache.WriteReq_accesses::cpu00.data       618905                       # number of WriteReq accesses(hits+misses)
system.cpu00.dcache.WriteReq_accesses::total       618905                       # number of WriteReq accesses(hits+misses)
system.cpu00.dcache.LoadLockedReq_accesses::cpu00.data         7090                       # number of LoadLockedReq accesses(hits+misses)
system.cpu00.dcache.LoadLockedReq_accesses::total         7090                       # number of LoadLockedReq accesses(hits+misses)
system.cpu00.dcache.StoreCondReq_accesses::cpu00.data         6971                       # number of StoreCondReq accesses(hits+misses)
system.cpu00.dcache.StoreCondReq_accesses::total         6971                       # number of StoreCondReq accesses(hits+misses)
system.cpu00.dcache.demand_accesses::cpu00.data      2844776                       # number of demand (read+write) accesses
system.cpu00.dcache.demand_accesses::total      2844776                       # number of demand (read+write) accesses
system.cpu00.dcache.overall_accesses::cpu00.data      2844776                       # number of overall (read+write) accesses
system.cpu00.dcache.overall_accesses::total      2844776                       # number of overall (read+write) accesses
system.cpu00.dcache.ReadReq_miss_rate::cpu00.data     0.361244                       # miss rate for ReadReq accesses
system.cpu00.dcache.ReadReq_miss_rate::total     0.361244                       # miss rate for ReadReq accesses
system.cpu00.dcache.WriteReq_miss_rate::cpu00.data     0.472105                       # miss rate for WriteReq accesses
system.cpu00.dcache.WriteReq_miss_rate::total     0.472105                       # miss rate for WriteReq accesses
system.cpu00.dcache.LoadLockedReq_miss_rate::cpu00.data     0.121439                       # miss rate for LoadLockedReq accesses
system.cpu00.dcache.LoadLockedReq_miss_rate::total     0.121439                       # miss rate for LoadLockedReq accesses
system.cpu00.dcache.StoreCondReq_miss_rate::cpu00.data     0.000430                       # miss rate for StoreCondReq accesses
system.cpu00.dcache.StoreCondReq_miss_rate::total     0.000430                       # miss rate for StoreCondReq accesses
system.cpu00.dcache.demand_miss_rate::cpu00.data     0.385363                       # miss rate for demand accesses
system.cpu00.dcache.demand_miss_rate::total     0.385363                       # miss rate for demand accesses
system.cpu00.dcache.overall_miss_rate::cpu00.data     0.385363                       # miss rate for overall accesses
system.cpu00.dcache.overall_miss_rate::total     0.385363                       # miss rate for overall accesses
system.cpu00.dcache.ReadReq_avg_miss_latency::cpu00.data 146991.486809                       # average ReadReq miss latency
system.cpu00.dcache.ReadReq_avg_miss_latency::total 146991.486809                       # average ReadReq miss latency
system.cpu00.dcache.WriteReq_avg_miss_latency::cpu00.data 214492.956778                       # average WriteReq miss latency
system.cpu00.dcache.WriteReq_avg_miss_latency::total 214492.956778                       # average WriteReq miss latency
system.cpu00.dcache.LoadLockedReq_avg_miss_latency::cpu00.data 13304.979094                       # average LoadLockedReq miss latency
system.cpu00.dcache.LoadLockedReq_avg_miss_latency::total 13304.979094                       # average LoadLockedReq miss latency
system.cpu00.dcache.StoreCondReq_avg_miss_latency::cpu00.data        11997                       # average StoreCondReq miss latency
system.cpu00.dcache.StoreCondReq_avg_miss_latency::total        11997                       # average StoreCondReq miss latency
system.cpu00.dcache.demand_avg_miss_latency::cpu00.data 164982.601687                       # average overall miss latency
system.cpu00.dcache.demand_avg_miss_latency::total 164982.601687                       # average overall miss latency
system.cpu00.dcache.overall_avg_miss_latency::cpu00.data 164982.601687                       # average overall miss latency
system.cpu00.dcache.overall_avg_miss_latency::total 164982.601687                       # average overall miss latency
system.cpu00.dcache.blocked_cycles::no_mshrs      9002299                       # number of cycles access was blocked
system.cpu00.dcache.blocked_cycles::no_targets           24                       # number of cycles access was blocked
system.cpu00.dcache.blocked::no_mshrs          240634                       # number of cycles access was blocked
system.cpu00.dcache.blocked::no_targets             1                       # number of cycles access was blocked
system.cpu00.dcache.avg_blocked_cycles::no_mshrs    37.410752                       # average number of cycles each access was blocked
system.cpu00.dcache.avg_blocked_cycles::no_targets           24                       # average number of cycles each access was blocked
system.cpu00.dcache.fast_writes                     0                       # number of fast writes performed
system.cpu00.dcache.cache_copies                    0                       # number of cache copies performed
system.cpu00.dcache.writebacks::writebacks       222444                       # number of writebacks
system.cpu00.dcache.writebacks::total          222444                       # number of writebacks
system.cpu00.dcache.ReadReq_mshr_hits::cpu00.data       527894                       # number of ReadReq MSHR hits
system.cpu00.dcache.ReadReq_mshr_hits::total       527894                       # number of ReadReq MSHR hits
system.cpu00.dcache.WriteReq_mshr_hits::cpu00.data       219748                       # number of WriteReq MSHR hits
system.cpu00.dcache.WriteReq_mshr_hits::total       219748                       # number of WriteReq MSHR hits
system.cpu00.dcache.LoadLockedReq_mshr_hits::cpu00.data          475                       # number of LoadLockedReq MSHR hits
system.cpu00.dcache.LoadLockedReq_mshr_hits::total          475                       # number of LoadLockedReq MSHR hits
system.cpu00.dcache.demand_mshr_hits::cpu00.data       747642                       # number of demand (read+write) MSHR hits
system.cpu00.dcache.demand_mshr_hits::total       747642                       # number of demand (read+write) MSHR hits
system.cpu00.dcache.overall_mshr_hits::cpu00.data       747642                       # number of overall MSHR hits
system.cpu00.dcache.overall_mshr_hits::total       747642                       # number of overall MSHR hits
system.cpu00.dcache.ReadReq_mshr_misses::cpu00.data       276188                       # number of ReadReq MSHR misses
system.cpu00.dcache.ReadReq_mshr_misses::total       276188                       # number of ReadReq MSHR misses
system.cpu00.dcache.WriteReq_mshr_misses::cpu00.data        72440                       # number of WriteReq MSHR misses
system.cpu00.dcache.WriteReq_mshr_misses::total        72440                       # number of WriteReq MSHR misses
system.cpu00.dcache.LoadLockedReq_mshr_misses::cpu00.data          386                       # number of LoadLockedReq MSHR misses
system.cpu00.dcache.LoadLockedReq_mshr_misses::total          386                       # number of LoadLockedReq MSHR misses
system.cpu00.dcache.StoreCondReq_mshr_misses::cpu00.data            3                       # number of StoreCondReq MSHR misses
system.cpu00.dcache.StoreCondReq_mshr_misses::total            3                       # number of StoreCondReq MSHR misses
system.cpu00.dcache.demand_mshr_misses::cpu00.data       348628                       # number of demand (read+write) MSHR misses
system.cpu00.dcache.demand_mshr_misses::total       348628                       # number of demand (read+write) MSHR misses
system.cpu00.dcache.overall_mshr_misses::cpu00.data       348628                       # number of overall MSHR misses
system.cpu00.dcache.overall_mshr_misses::total       348628                       # number of overall MSHR misses
system.cpu00.dcache.ReadReq_mshr_miss_latency::cpu00.data  51721463304                       # number of ReadReq MSHR miss cycles
system.cpu00.dcache.ReadReq_mshr_miss_latency::total  51721463304                       # number of ReadReq MSHR miss cycles
system.cpu00.dcache.WriteReq_mshr_miss_latency::cpu00.data  16933197892                       # number of WriteReq MSHR miss cycles
system.cpu00.dcache.WriteReq_mshr_miss_latency::total  16933197892                       # number of WriteReq MSHR miss cycles
system.cpu00.dcache.LoadLockedReq_mshr_miss_latency::cpu00.data      5964057                       # number of LoadLockedReq MSHR miss cycles
system.cpu00.dcache.LoadLockedReq_mshr_miss_latency::total      5964057                       # number of LoadLockedReq MSHR miss cycles
system.cpu00.dcache.StoreCondReq_mshr_miss_latency::cpu00.data        32508                       # number of StoreCondReq MSHR miss cycles
system.cpu00.dcache.StoreCondReq_mshr_miss_latency::total        32508                       # number of StoreCondReq MSHR miss cycles
system.cpu00.dcache.demand_mshr_miss_latency::cpu00.data  68654661196                       # number of demand (read+write) MSHR miss cycles
system.cpu00.dcache.demand_mshr_miss_latency::total  68654661196                       # number of demand (read+write) MSHR miss cycles
system.cpu00.dcache.overall_mshr_miss_latency::cpu00.data  68654661196                       # number of overall MSHR miss cycles
system.cpu00.dcache.overall_mshr_miss_latency::total  68654661196                       # number of overall MSHR miss cycles
system.cpu00.dcache.ReadReq_mshr_miss_rate::cpu00.data     0.124081                       # mshr miss rate for ReadReq accesses
system.cpu00.dcache.ReadReq_mshr_miss_rate::total     0.124081                       # mshr miss rate for ReadReq accesses
system.cpu00.dcache.WriteReq_mshr_miss_rate::cpu00.data     0.117045                       # mshr miss rate for WriteReq accesses
system.cpu00.dcache.WriteReq_mshr_miss_rate::total     0.117045                       # mshr miss rate for WriteReq accesses
system.cpu00.dcache.LoadLockedReq_mshr_miss_rate::cpu00.data     0.054443                       # mshr miss rate for LoadLockedReq accesses
system.cpu00.dcache.LoadLockedReq_mshr_miss_rate::total     0.054443                       # mshr miss rate for LoadLockedReq accesses
system.cpu00.dcache.StoreCondReq_mshr_miss_rate::cpu00.data     0.000430                       # mshr miss rate for StoreCondReq accesses
system.cpu00.dcache.StoreCondReq_mshr_miss_rate::total     0.000430                       # mshr miss rate for StoreCondReq accesses
system.cpu00.dcache.demand_mshr_miss_rate::cpu00.data     0.122550                       # mshr miss rate for demand accesses
system.cpu00.dcache.demand_mshr_miss_rate::total     0.122550                       # mshr miss rate for demand accesses
system.cpu00.dcache.overall_mshr_miss_rate::cpu00.data     0.122550                       # mshr miss rate for overall accesses
system.cpu00.dcache.overall_mshr_miss_rate::total     0.122550                       # mshr miss rate for overall accesses
system.cpu00.dcache.ReadReq_avg_mshr_miss_latency::cpu00.data 187269.046099                       # average ReadReq mshr miss latency
system.cpu00.dcache.ReadReq_avg_mshr_miss_latency::total 187269.046099                       # average ReadReq mshr miss latency
system.cpu00.dcache.WriteReq_avg_mshr_miss_latency::cpu00.data 233754.802485                       # average WriteReq mshr miss latency
[...]
system.tol2bus.pkt_count_system.cpu06.dcache.mem_side::system.l2.cpu_side       945860                       # Packet count per connected master and slave (bytes)
system.tol2bus.pkt_count_system.cpu07.icache.mem_side::system.l2.cpu_side        10300                       # Packet count per connected master and slave (bytes)
system.tol2bus.pkt_count_system.cpu07.dcache.mem_side::system.l2.cpu_side       939619                       # Packet count per connected master and slave (bytes)
system.tol2bus.pkt_count_system.cpu08.icache.mem_side::system.l2.cpu_side        11884                       # Packet count per connected master and slave (bytes)
system.tol2bus.pkt_count_system.cpu08.dcache.mem_side::system.l2.cpu_side       939614                       # Packet count per connected master and slave (bytes)
system.tol2bus.pkt_count_system.cpu09.icache.mem_side::system.l2.cpu_side        11410                       # Packet count per connected master and slave (bytes)
system.tol2bus.pkt_count_system.cpu09.dcache.mem_side::system.l2.cpu_side       931284                       # Packet count per connected master and slave (bytes)
system.tol2bus.pkt_count_system.cpu10.icache.mem_side::system.l2.cpu_side        10402                       # Packet count per connected master and slave (bytes)
system.tol2bus.pkt_count_system.cpu10.dcache.mem_side::system.l2.cpu_side       939333                       # Packet count per connected master and slave (bytes)
system.tol2bus.pkt_count_system.cpu11.icache.mem_side::system.l2.cpu_side        10159                       # Packet count per connected master and slave (bytes)
system.tol2bus.pkt_count_system.cpu11.dcache.mem_side::system.l2.cpu_side       940585                       # Packet count per connected master and slave (bytes)
system.tol2bus.pkt_count_system.cpu12.icache.mem_side::system.l2.cpu_side        11833                       # Packet count per connected master and slave (bytes)
system.tol2bus.pkt_count_system.cpu12.dcache.mem_side::system.l2.cpu_side       938040                       # Packet count per connected master and slave (bytes)
system.tol2bus.pkt_count_system.cpu13.icache.mem_side::system.l2.cpu_side        12196                       # Packet count per connected master and slave (bytes)
system.tol2bus.pkt_count_system.cpu13.dcache.mem_side::system.l2.cpu_side       923792                       # Packet count per connected master and slave (bytes)
system.tol2bus.pkt_count_system.cpu14.icache.mem_side::system.l2.cpu_side        11293                       # Packet count per connected master and slave (bytes)
system.tol2bus.pkt_count_system.cpu14.dcache.mem_side::system.l2.cpu_side       939908                       # Packet count per connected master and slave (bytes)
system.tol2bus.pkt_count_system.cpu15.icache.mem_side::system.l2.cpu_side        12949                       # Packet count per connected master and slave (bytes)
system.tol2bus.pkt_count_system.cpu15.dcache.mem_side::system.l2.cpu_side       927922                       # Packet count per connected master and slave (bytes)
system.tol2bus.pkt_count::total              15256312                       # Packet count per connected master and slave (bytes)
system.tol2bus.pkt_size_system.cpu00.icache.mem_side::system.l2.cpu_side      1532800                       # Cumulative packet size per connected master and slave (bytes)
system.tol2bus.pkt_size_system.cpu00.dcache.mem_side::system.l2.cpu_side     35341568                       # Cumulative packet size per connected master and slave (bytes)
system.tol2bus.pkt_size_system.cpu01.icache.mem_side::system.l2.cpu_side       529024                       # Cumulative packet size per connected master and slave (bytes)
system.tol2bus.pkt_size_system.cpu01.dcache.mem_side::system.l2.cpu_side     32816768                       # Cumulative packet size per connected master and slave (bytes)
system.tol2bus.pkt_size_system.cpu02.icache.mem_side::system.l2.cpu_side       456832                       # Cumulative packet size per connected master and slave (bytes)
system.tol2bus.pkt_size_system.cpu02.dcache.mem_side::system.l2.cpu_side     33129344                       # Cumulative packet size per connected master and slave (bytes)
system.tol2bus.pkt_size_system.cpu03.icache.mem_side::system.l2.cpu_side       460288                       # Cumulative packet size per connected master and slave (bytes)
system.tol2bus.pkt_size_system.cpu03.dcache.mem_side::system.l2.cpu_side     32580992                       # Cumulative packet size per connected master and slave (bytes)
system.tol2bus.pkt_size_system.cpu04.icache.mem_side::system.l2.cpu_side       533632                       # Cumulative packet size per connected master and slave (bytes)
system.tol2bus.pkt_size_system.cpu04.dcache.mem_side::system.l2.cpu_side     32759936                       # Cumulative packet size per connected master and slave (bytes)
system.tol2bus.pkt_size_system.cpu05.icache.mem_side::system.l2.cpu_side       477056                       # Cumulative packet size per connected master and slave (bytes)
system.tol2bus.pkt_size_system.cpu05.dcache.mem_side::system.l2.cpu_side     32567168                       # Cumulative packet size per connected master and slave (bytes)
system.tol2bus.pkt_size_system.cpu06.icache.mem_side::system.l2.cpu_side       432768                       # Cumulative packet size per connected master and slave (bytes)
system.tol2bus.pkt_size_system.cpu06.dcache.mem_side::system.l2.cpu_side     32769856                       # Cumulative packet size per connected master and slave (bytes)
system.tol2bus.pkt_size_system.cpu07.icache.mem_side::system.l2.cpu_side       428544                       # Cumulative packet size per connected master and slave (bytes)
system.tol2bus.pkt_size_system.cpu07.dcache.mem_side::system.l2.cpu_side     32503424                       # Cumulative packet size per connected master and slave (bytes)
system.tol2bus.pkt_size_system.cpu08.icache.mem_side::system.l2.cpu_side       496128                       # Cumulative packet size per connected master and slave (bytes)
system.tol2bus.pkt_size_system.cpu08.dcache.mem_side::system.l2.cpu_side     32359104                       # Cumulative packet size per connected master and slave (bytes)
system.tol2bus.pkt_size_system.cpu09.icache.mem_side::system.l2.cpu_side       475904                       # Cumulative packet size per connected master and slave (bytes)
system.tol2bus.pkt_size_system.cpu09.dcache.mem_side::system.l2.cpu_side     31844864                       # Cumulative packet size per connected master and slave (bytes)
system.tol2bus.pkt_size_system.cpu10.icache.mem_side::system.l2.cpu_side       432896                       # Cumulative packet size per connected master and slave (bytes)
system.tol2bus.pkt_size_system.cpu10.dcache.mem_side::system.l2.cpu_side     32099136                       # Cumulative packet size per connected master and slave (bytes)
system.tol2bus.pkt_size_system.cpu11.icache.mem_side::system.l2.cpu_side       422528                       # Cumulative packet size per connected master and slave (bytes)
system.tol2bus.pkt_size_system.cpu11.dcache.mem_side::system.l2.cpu_side     32366848                       # Cumulative packet size per connected master and slave (bytes)
system.tol2bus.pkt_size_system.cpu12.icache.mem_side::system.l2.cpu_side       493952                       # Cumulative packet size per connected master and slave (bytes)
system.tol2bus.pkt_size_system.cpu12.dcache.mem_side::system.l2.cpu_side     32419264                       # Cumulative packet size per connected master and slave (bytes)
system.tol2bus.pkt_size_system.cpu13.icache.mem_side::system.l2.cpu_side       509440                       # Cumulative packet size per connected master and slave (bytes)
system.tol2bus.pkt_size_system.cpu13.dcache.mem_side::system.l2.cpu_side     31807488                       # Cumulative packet size per connected master and slave (bytes)
system.tol2bus.pkt_size_system.cpu14.icache.mem_side::system.l2.cpu_side       470912                       # Cumulative packet size per connected master and slave (bytes)
system.tol2bus.pkt_size_system.cpu14.dcache.mem_side::system.l2.cpu_side     32168256                       # Cumulative packet size per connected master and slave (bytes)
system.tol2bus.pkt_size_system.cpu15.icache.mem_side::system.l2.cpu_side       541568                       # Cumulative packet size per connected master and slave (bytes)
system.tol2bus.pkt_size_system.cpu15.dcache.mem_side::system.l2.cpu_side     32560192                       # Cumulative packet size per connected master and slave (bytes)
system.tol2bus.pkt_size::total              530788480                       # Cumulative packet size per connected master and slave (bytes)
system.tol2bus.snoops                          945428                       # Total snoops (count)
system.tol2bus.snoop_fanout::samples          6049430                       # Request fanout histogram
system.tol2bus.snoop_fanout::mean            0.546304                       # Request fanout histogram
system.tol2bus.snoop_fanout::stdev           2.221364                       # Request fanout histogram
system.tol2bus.snoop_fanout::underflows             0      0.00%      0.00% # Request fanout histogram
system.tol2bus.snoop_fanout::0                5346070     88.37%     88.37% # Request fanout histogram
system.tol2bus.snoop_fanout::1                 313105      5.18%     93.55% # Request fanout histogram
system.tol2bus.snoop_fanout::2                  79822      1.32%     94.87% # Request fanout histogram
system.tol2bus.snoop_fanout::3                  34299      0.57%     95.44% # Request fanout histogram
system.tol2bus.snoop_fanout::4                  24086      0.40%     95.83% # Request fanout histogram
system.tol2bus.snoop_fanout::5                  21622      0.36%     96.19% # Request fanout histogram
system.tol2bus.snoop_fanout::6                  20643      0.34%     96.53% # Request fanout histogram
system.tol2bus.snoop_fanout::7                  21219      0.35%     96.88% # Request fanout histogram
system.tol2bus.snoop_fanout::8                  19825      0.33%     97.21% # Request fanout histogram
system.tol2bus.snoop_fanout::9                  19983      0.33%     97.54% # Request fanout histogram
system.tol2bus.snoop_fanout::10                 21001      0.35%     97.89% # Request fanout histogram
system.tol2bus.snoop_fanout::11                 21698      0.36%     98.25% # Request fanout histogram
system.tol2bus.snoop_fanout::12                 20684      0.34%     98.59% # Request fanout histogram
system.tol2bus.snoop_fanout::13                 21415      0.35%     98.94% # Request fanout histogram
system.tol2bus.snoop_fanout::14                 24463      0.40%     99.35% # Request fanout histogram
system.tol2bus.snoop_fanout::15                 35802      0.59%     99.94% # Request fanout histogram
system.tol2bus.snoop_fanout::16                  3693      0.06%    100.00% # Request fanout histogram
system.tol2bus.snoop_fanout::17                     0      0.00%    100.00% # Request fanout histogram
system.tol2bus.snoop_fanout::18                     0      0.00%    100.00% # Request fanout histogram
system.tol2bus.snoop_fanout::19                     0      0.00%    100.00% # Request fanout histogram
system.tol2bus.snoop_fanout::20                     0      0.00%    100.00% # Request fanout histogram
system.tol2bus.snoop_fanout::21                     0      0.00%    100.00% # Request fanout histogram
system.tol2bus.snoop_fanout::22                     0      0.00%    100.00% # Request fanout histogram
system.tol2bus.snoop_fanout::23                     0      0.00%    100.00% # Request fanout histogram
system.tol2bus.snoop_fanout::24                     0      0.00%    100.00% # Request fanout histogram
system.tol2bus.snoop_fanout::25                     0      0.00%    100.00% # Request fanout histogram
system.tol2bus.snoop_fanout::26                     0      0.00%    100.00% # Request fanout histogram
system.tol2bus.snoop_fanout::27                     0      0.00%    100.00% # Request fanout histogram
system.tol2bus.snoop_fanout::28                     0      0.00%    100.00% # Request fanout histogram
system.tol2bus.snoop_fanout::29                     0      0.00%    100.00% # Request fanout histogram
system.tol2bus.snoop_fanout::30                     0      0.00%    100.00% # Request fanout histogram
system.tol2bus.snoop_fanout::31                     0      0.00%    100.00% # Request fanout histogram
system.tol2bus.snoop_fanout::32                     0      0.00%    100.00% # Request fanout histogram
system.tol2bus.snoop_fanout::overflows              0      0.00%    100.00% # Request fanout histogram
system.tol2bus.snoop_fanout::min_value              0                       # Request fanout histogram
system.tol2bus.snoop_fanout::max_value             16                       # Request fanout histogram
system.tol2bus.snoop_fanout::total            6049430                       # Request fanout histogram
system.tol2bus.reqLayer0.occupancy        20063561120                       # Layer occupancy (ticks)
system.tol2bus.reqLayer0.utilization             83.6                       # Layer utilization (%)
system.tol2bus.respLayer0.occupancy          43983998                       # Layer occupancy (ticks)
system.tol2bus.respLayer0.utilization             0.2                       # Layer utilization (%)
system.tol2bus.respLayer1.occupancy        1222446526                       # Layer occupancy (ticks)
system.tol2bus.respLayer1.utilization             5.1                       # Layer utilization (%)
system.tol2bus.respLayer2.occupancy          16343168                       # Layer occupancy (ticks)
system.tol2bus.respLayer2.utilization             0.1                       # Layer utilization (%)
system.tol2bus.respLayer3.occupancy        1109063845                       # Layer occupancy (ticks)
system.tol2bus.respLayer3.utilization             4.6                       # Layer utilization (%)
system.tol2bus.respLayer4.occupancy          14334408                       # Layer occupancy (ticks)
system.tol2bus.respLayer4.utilization             0.1                       # Layer utilization (%)
system.tol2bus.respLayer5.occupancy        1127470301                       # Layer occupancy (ticks)
system.tol2bus.respLayer5.utilization             4.7                       # Layer utilization (%)
system.tol2bus.respLayer6.occupancy          14448380                       # Layer occupancy (ticks)
system.tol2bus.respLayer6.utilization             0.1                       # Layer utilization (%)
system.tol2bus.respLayer7.occupancy        1118671596                       # Layer occupancy (ticks)
system.tol2bus.respLayer7.utilization             4.7                       # Layer utilization (%)
system.tol2bus.respLayer8.occupancy          16642040                       # Layer occupancy (ticks)
system.tol2bus.respLayer8.utilization             0.1                       # Layer utilization (%)
system.tol2bus.respLayer9.occupancy        1106223301                       # Layer occupancy (ticks)
system.tol2bus.respLayer9.utilization             4.6                       # Layer utilization (%)
system.tol2bus.respLayer10.occupancy         14925240                       # Layer occupancy (ticks)
system.tol2bus.respLayer10.utilization            0.1                       # Layer utilization (%)
system.tol2bus.respLayer11.occupancy       1122036100                       # Layer occupancy (ticks)
system.tol2bus.respLayer11.utilization            4.7                       # Layer utilization (%)
system.tol2bus.respLayer12.occupancy         13899480                       # Layer occupancy (ticks)
system.tol2bus.respLayer12.utilization            0.1                       # Layer utilization (%)
system.tol2bus.respLayer13.occupancy       1142047910                       # Layer occupancy (ticks)
system.tol2bus.respLayer13.utilization            4.8                       # Layer utilization (%)
system.tol2bus.respLayer14.occupancy         13828228                       # Layer occupancy (ticks)
system.tol2bus.respLayer14.utilization            0.1                       # Layer utilization (%)
system.tol2bus.respLayer15.occupancy       1132889995                       # Layer occupancy (ticks)
system.tol2bus.respLayer15.utilization            4.7                       # Layer utilization (%)
system.tol2bus.respLayer16.occupancy         15534769                       # Layer occupancy (ticks)
system.tol2bus.respLayer16.utilization            0.1                       # Layer utilization (%)
system.tol2bus.respLayer17.occupancy       1123885309                       # Layer occupancy (ticks)
system.tol2bus.respLayer17.utilization            4.7                       # Layer utilization (%)
system.tol2bus.respLayer18.occupancy         14873944                       # Layer occupancy (ticks)
system.tol2bus.respLayer18.utilization            0.1                       # Layer utilization (%)
system.tol2bus.respLayer19.occupancy       1114797741                       # Layer occupancy (ticks)
system.tol2bus.respLayer19.utilization            4.6                       # Layer utilization (%)
system.tol2bus.respLayer20.occupancy         13876219                       # Layer occupancy (ticks)
system.tol2bus.respLayer20.utilization            0.1                       # Layer utilization (%)
system.tol2bus.respLayer21.occupancy       1135097250                       # Layer occupancy (ticks)
system.tol2bus.respLayer21.utilization            4.7                       # Layer utilization (%)
system.tol2bus.respLayer22.occupancy         13578917                       # Layer occupancy (ticks)
system.tol2bus.respLayer22.utilization            0.1                       # Layer utilization (%)
system.tol2bus.respLayer23.occupancy       1134456523                       # Layer occupancy (ticks)
system.tol2bus.respLayer23.utilization            4.7                       # Layer utilization (%)
system.tol2bus.respLayer24.occupancy         15488050                       # Layer occupancy (ticks)
system.tol2bus.respLayer24.utilization            0.1                       # Layer utilization (%)
system.tol2bus.respLayer25.occupancy       1123681521                       # Layer occupancy (ticks)
system.tol2bus.respLayer25.utilization            4.7                       # Layer utilization (%)
system.tol2bus.respLayer26.occupancy         15905747                       # Layer occupancy (ticks)
system.tol2bus.respLayer26.utilization            0.1                       # Layer utilization (%)
system.tol2bus.respLayer27.occupancy       1104437052                       # Layer occupancy (ticks)
system.tol2bus.respLayer27.utilization            4.6                       # Layer utilization (%)
system.tol2bus.respLayer28.occupancy         14827020                       # Layer occupancy (ticks)
system.tol2bus.respLayer28.utilization            0.1                       # Layer utilization (%)
system.tol2bus.respLayer29.occupancy       1133683281                       # Layer occupancy (ticks)
system.tol2bus.respLayer29.utilization            4.7                       # Layer utilization (%)
system.tol2bus.respLayer30.occupancy         16892579                       # Layer occupancy (ticks)
system.tol2bus.respLayer30.utilization            0.1                       # Layer utilization (%)
system.tol2bus.respLayer31.occupancy       1107823976                       # Layer occupancy (ticks)
system.tol2bus.respLayer31.utilization            4.6                       # Layer utilization (%)

---------- End Simulation Statistics   ----------
