
---------- Begin Simulation Statistics ----------
sim_seconds                                  0.001291                       # Number of seconds simulated
sim_ticks                                  1291099343                       # Number of ticks simulated
final_tick                                 1291099343                       # Number of ticks from beginning of simulation (restored from checkpoints and never reset)
sim_freq                                 1000000000000                       # Frequency of simulated ticks
host_inst_rate                                 224415                       # Simulator instruction rate (inst/s)
host_op_rate                                   224415                       # Simulator op (including micro ops) rate (op/s)
host_tick_rate                              130724493                       # Simulator tick rate (ticks/s)
host_mem_usage                                 694740                       # Number of bytes of host memory used
host_seconds                                     9.88                       # Real time elapsed on the host
sim_insts                                     2216426                       # Number of instructions simulated
sim_ops                                       2216426                       # Number of ops (including micro ops) simulated
system.voltage_domain.voltage                       1                       # Voltage in Volts
system.clk_domain.clock                          1000                       # Clock period in ticks
system.mem_ctrls.bytes_read::cpu00.inst        122432                       # Number of bytes read from this memory
system.mem_ctrls.bytes_read::cpu00.data        378368                       # Number of bytes read from this memory
system.mem_ctrls.bytes_read::cpu01.inst         12992                       # Number of bytes read from this memory
system.mem_ctrls.bytes_read::cpu01.data          6528                       # Number of bytes read from this memory
system.mem_ctrls.bytes_read::cpu02.inst          2048                       # Number of bytes read from this memory
system.mem_ctrls.bytes_read::cpu02.data          7040                       # Number of bytes read from this memory
system.mem_ctrls.bytes_read::cpu03.inst           384                       # Number of bytes read from this memory
system.mem_ctrls.bytes_read::cpu03.data          6784                       # Number of bytes read from this memory
system.mem_ctrls.bytes_read::cpu04.inst           704                       # Number of bytes read from this memory
system.mem_ctrls.bytes_read::cpu04.data          6656                       # Number of bytes read from this memory
system.mem_ctrls.bytes_read::cpu05.inst          1088                       # Number of bytes read from this memory
system.mem_ctrls.bytes_read::cpu05.data          6272                       # Number of bytes read from this memory
system.mem_ctrls.bytes_read::cpu06.inst          3136                       # Number of bytes read from this memory
system.mem_ctrls.bytes_read::cpu06.data          6336                       # Number of bytes read from this memory
system.mem_ctrls.bytes_read::cpu07.inst          1088                       # Number of bytes read from this memory
system.mem_ctrls.bytes_read::cpu07.data          6336                       # Number of bytes read from this memory
system.mem_ctrls.bytes_read::cpu08.inst           576                       # Number of bytes read from this memory
system.mem_ctrls.bytes_read::cpu08.data          4544                       # Number of bytes read from this memory
system.mem_ctrls.bytes_read::cpu09.inst          1600                       # Number of bytes read from this memory
system.mem_ctrls.bytes_read::cpu09.data          5568                       # Number of bytes read from this memory
system.mem_ctrls.bytes_read::cpu10.inst          4288                       # Number of bytes read from this memory
system.mem_ctrls.bytes_read::cpu10.data          5888                       # Number of bytes read from this memory
system.mem_ctrls.bytes_read::cpu11.inst           960                       # Number of bytes read from this memory
system.mem_ctrls.bytes_read::cpu11.data          6336                       # Number of bytes read from this memory
system.mem_ctrls.bytes_read::cpu12.inst          1088                       # Number of bytes read from this memory
system.mem_ctrls.bytes_read::cpu12.data          5312                       # Number of bytes read from this memory
system.mem_ctrls.bytes_read::cpu13.inst           448                       # Number of bytes read from this memory
system.mem_ctrls.bytes_read::cpu13.data          4992                       # Number of bytes read from this memory
system.mem_ctrls.bytes_read::cpu14.inst           512                       # Number of bytes read from this memory
system.mem_ctrls.bytes_read::cpu14.data          5376                       # Number of bytes read from this memory
system.mem_ctrls.bytes_read::cpu15.inst           640                       # Number of bytes read from this memory
system.mem_ctrls.bytes_read::cpu15.data          4544                       # Number of bytes read from this memory
system.mem_ctrls.bytes_read::total             620864                       # Number of bytes read from this memory
system.mem_ctrls.bytes_inst_read::cpu00.inst       122432                       # Number of instructions bytes read from this memory
system.mem_ctrls.bytes_inst_read::cpu01.inst        12992                       # Number of instructions bytes read from this memory
system.mem_ctrls.bytes_inst_read::cpu02.inst         2048                       # Number of instructions bytes read from this memory
system.mem_ctrls.bytes_inst_read::cpu03.inst          384                       # Number of instructions bytes read from this memory
system.mem_ctrls.bytes_inst_read::cpu04.inst          704                       # Number of instructions bytes read from this memory
system.mem_ctrls.bytes_inst_read::cpu05.inst         1088                       # Number of instructions bytes read from this memory
system.mem_ctrls.bytes_inst_read::cpu06.inst         3136                       # Number of instructions bytes read from this memory
system.mem_ctrls.bytes_inst_read::cpu07.inst         1088                       # Number of instructions bytes read from this memory
system.mem_ctrls.bytes_inst_read::cpu08.inst          576                       # Number of instructions bytes read from this memory
system.mem_ctrls.bytes_inst_read::cpu09.inst         1600                       # Number of instructions bytes read from this memory
system.mem_ctrls.bytes_inst_read::cpu10.inst         4288                       # Number of instructions bytes read from this memory
system.mem_ctrls.bytes_inst_read::cpu11.inst          960                       # Number of instructions bytes read from this memory
system.mem_ctrls.bytes_inst_read::cpu12.inst         1088                       # Number of instructions bytes read from this memory
system.mem_ctrls.bytes_inst_read::cpu13.inst          448                       # Number of instructions bytes read from this memory
system.mem_ctrls.bytes_inst_read::cpu14.inst          512                       # Number of instructions bytes read from this memory
system.mem_ctrls.bytes_inst_read::cpu15.inst          640                       # Number of instructions bytes read from this memory
system.mem_ctrls.bytes_inst_read::total        153984                       # Number of instructions bytes read from this memory
system.mem_ctrls.bytes_written::writebacks        77056                       # Number of bytes written to this memory
system.mem_ctrls.bytes_written::total           77056                       # Number of bytes written to this memory
system.mem_ctrls.num_reads::cpu00.inst           1913                       # Number of read requests responded to by this memory
system.mem_ctrls.num_reads::cpu00.data           5912                       # Number of read requests responded to by this memory
system.mem_ctrls.num_reads::cpu01.inst            203                       # Number of read requests responded to by this memory
system.mem_ctrls.num_reads::cpu01.data            102                       # Number of read requests responded to by this memory
system.mem_ctrls.num_reads::cpu02.inst             32                       # Number of read requests responded to by this memory
system.mem_ctrls.num_reads::cpu02.data            110                       # Number of read requests responded to by this memory
system.mem_ctrls.num_reads::cpu03.inst              6                       # Number of read requests responded to by this memory
system.mem_ctrls.num_reads::cpu03.data            106                       # Number of read requests responded to by this memory
system.mem_ctrls.num_reads::cpu04.inst             11                       # Number of read requests responded to by this memory
system.mem_ctrls.num_reads::cpu04.data            104                       # Number of read requests responded to by this memory
system.mem_ctrls.num_reads::cpu05.inst             17                       # Number of read requests responded to by this memory
system.mem_ctrls.num_reads::cpu05.data             98                       # Number of read requests responded to by this memory
system.mem_ctrls.num_reads::cpu06.inst             49                       # Number of read requests responded to by this memory
system.mem_ctrls.num_reads::cpu06.data             99                       # Number of read requests responded to by this memory
system.mem_ctrls.num_reads::cpu07.inst             17                       # Number of read requests responded to by this memory
system.mem_ctrls.num_reads::cpu07.data             99                       # Number of read requests responded to by this memory
system.mem_ctrls.num_reads::cpu08.inst              9                       # Number of read requests responded to by this memory
system.mem_ctrls.num_reads::cpu08.data             71                       # Number of read requests responded to by this memory
system.mem_ctrls.num_reads::cpu09.inst             25                       # Number of read requests responded to by this memory
system.mem_ctrls.num_reads::cpu09.data             87                       # Number of read requests responded to by this memory
system.mem_ctrls.num_reads::cpu10.inst             67                       # Number of read requests responded to by this memory
system.mem_ctrls.num_reads::cpu10.data             92                       # Number of read requests responded to by this memory
system.mem_ctrls.num_reads::cpu11.inst             15                       # Number of read requests responded to by this memory
system.mem_ctrls.num_reads::cpu11.data             99                       # Number of read requests responded to by this memory
system.mem_ctrls.num_reads::cpu12.inst             17                       # Number of read requests responded to by this memory
system.mem_ctrls.num_reads::cpu12.data             83                       # Number of read requests responded to by this memory
system.mem_ctrls.num_reads::cpu13.inst              7                       # Number of read requests responded to by this memory
system.mem_ctrls.num_reads::cpu13.data             78                       # Number of read requests responded to by this memory
system.mem_ctrls.num_reads::cpu14.inst              8                       # Number of read requests responded to by this memory
system.mem_ctrls.num_reads::cpu14.data             84                       # Number of read requests responded to by this memory
system.mem_ctrls.num_reads::cpu15.inst             10                       # Number of read requests responded to by this memory
system.mem_ctrls.num_reads::cpu15.data             71                       # Number of read requests responded to by this memory
system.mem_ctrls.num_reads::total                9701                       # Number of read requests responded to by this memory
system.mem_ctrls.num_writes::writebacks          1204                       # Number of write requests responded to by this memory
system.mem_ctrls.num_writes::total               1204                       # Number of write requests responded to by this memory
system.mem_ctrls.bw_read::cpu00.inst         94827715                       # Total read bandwidth from this memory (bytes/s)
system.mem_ctrls.bw_read::cpu00.data        293058781                       # Total read bandwidth from this memory (bytes/s)
system.mem_ctrls.bw_read::cpu01.inst         10062742                       # Total read bandwidth from this memory (bytes/s)
system.mem_ctrls.bw_read::cpu01.data          5056156                       # Total read bandwidth from this memory (bytes/s)
system.mem_ctrls.bw_read::cpu02.inst          1586245                       # Total read bandwidth from this memory (bytes/s)
system.mem_ctrls.bw_read::cpu02.data          5452718                       # Total read bandwidth from this memory (bytes/s)
system.mem_ctrls.bw_read::cpu03.inst           297421                       # Total read bandwidth from this memory (bytes/s)
system.mem_ctrls.bw_read::cpu03.data          5254437                       # Total read bandwidth from this memory (bytes/s)
system.mem_ctrls.bw_read::cpu04.inst           545272                       # Total read bandwidth from this memory (bytes/s)
system.mem_ctrls.bw_read::cpu04.data          5155297                       # Total read bandwidth from this memory (bytes/s)
system.mem_ctrls.bw_read::cpu05.inst           842693                       # Total read bandwidth from this memory (bytes/s)
system.mem_ctrls.bw_read::cpu05.data          4857876                       # Total read bandwidth from this memory (bytes/s)
system.mem_ctrls.bw_read::cpu06.inst          2428938                       # Total read bandwidth from this memory (bytes/s)
system.mem_ctrls.bw_read::cpu06.data          4907446                       # Total read bandwidth from this memory (bytes/s)
system.mem_ctrls.bw_read::cpu07.inst           842693                       # Total read bandwidth from this memory (bytes/s)
system.mem_ctrls.bw_read::cpu07.data          4907446                       # Total read bandwidth from this memory (bytes/s)
system.mem_ctrls.bw_read::cpu08.inst           446131                       # Total read bandwidth from this memory (bytes/s)
system.mem_ctrls.bw_read::cpu08.data          3519481                       # Total read bandwidth from this memory (bytes/s)
system.mem_ctrls.bw_read::cpu09.inst          1239254                       # Total read bandwidth from this memory (bytes/s)
system.mem_ctrls.bw_read::cpu09.data          4312604                       # Total read bandwidth from this memory (bytes/s)
system.mem_ctrls.bw_read::cpu10.inst          3321201                       # Total read bandwidth from this memory (bytes/s)
system.mem_ctrls.bw_read::cpu10.data          4560455                       # Total read bandwidth from this memory (bytes/s)
system.mem_ctrls.bw_read::cpu11.inst           743552                       # Total read bandwidth from this memory (bytes/s)
system.mem_ctrls.bw_read::cpu11.data          4907446                       # Total read bandwidth from this memory (bytes/s)
system.mem_ctrls.bw_read::cpu12.inst           842693                       # Total read bandwidth from this memory (bytes/s)
system.mem_ctrls.bw_read::cpu12.data          4114323                       # Total read bandwidth from this memory (bytes/s)
system.mem_ctrls.bw_read::cpu13.inst           346991                       # Total read bandwidth from this memory (bytes/s)
system.mem_ctrls.bw_read::cpu13.data          3866472                       # Total read bandwidth from this memory (bytes/s)
system.mem_ctrls.bw_read::cpu14.inst           396561                       # Total read bandwidth from this memory (bytes/s)
system.mem_ctrls.bw_read::cpu14.data          4163893                       # Total read bandwidth from this memory (bytes/s)
system.mem_ctrls.bw_read::cpu15.inst           495702                       # Total read bandwidth from this memory (bytes/s)
system.mem_ctrls.bw_read::cpu15.data          3519481                       # Total read bandwidth from this memory (bytes/s)
system.mem_ctrls.bw_read::total             480880115                       # Total read bandwidth from this memory (bytes/s)
system.mem_ctrls.bw_inst_read::cpu00.inst     94827715                       # Instruction read bandwidth from this memory (bytes/s)
system.mem_ctrls.bw_inst_read::cpu01.inst     10062742                       # Instruction read bandwidth from this memory (bytes/s)
system.mem_ctrls.bw_inst_read::cpu02.inst      1586245                       # Instruction read bandwidth from this memory (bytes/s)
system.mem_ctrls.bw_inst_read::cpu03.inst       297421                       # Instruction read bandwidth from this memory (bytes/s)
system.mem_ctrls.bw_inst_read::cpu04.inst       545272                       # Instruction read bandwidth from this memory (bytes/s)
system.mem_ctrls.bw_inst_read::cpu05.inst       842693                       # Instruction read bandwidth from this memory (bytes/s)
system.mem_ctrls.bw_inst_read::cpu06.inst      2428938                       # Instruction read bandwidth from this memory (bytes/s)
system.mem_ctrls.bw_inst_read::cpu07.inst       842693                       # Instruction read bandwidth from this memory (bytes/s)
system.mem_ctrls.bw_inst_read::cpu08.inst       446131                       # Instruction read bandwidth from this memory (bytes/s)
system.mem_ctrls.bw_inst_read::cpu09.inst      1239254                       # Instruction read bandwidth from this memory (bytes/s)
system.mem_ctrls.bw_inst_read::cpu10.inst      3321201                       # Instruction read bandwidth from this memory (bytes/s)
system.mem_ctrls.bw_inst_read::cpu11.inst       743552                       # Instruction read bandwidth from this memory (bytes/s)
system.mem_ctrls.bw_inst_read::cpu12.inst       842693                       # Instruction read bandwidth from this memory (bytes/s)
system.mem_ctrls.bw_inst_read::cpu13.inst       346991                       # Instruction read bandwidth from this memory (bytes/s)
system.mem_ctrls.bw_inst_read::cpu14.inst       396561                       # Instruction read bandwidth from this memory (bytes/s)
system.mem_ctrls.bw_inst_read::cpu15.inst       495702                       # Instruction read bandwidth from this memory (bytes/s)
system.mem_ctrls.bw_inst_read::total        119265803                       # Instruction read bandwidth from this memory (bytes/s)
system.mem_ctrls.bw_write::writebacks        59682472                       # Write bandwidth from this memory (bytes/s)
system.mem_ctrls.bw_write::total             59682472                       # Write bandwidth from this memory (bytes/s)
system.mem_ctrls.bw_total::writebacks        59682472                       # Total bandwidth to/from this memory (bytes/s)
system.mem_ctrls.bw_total::cpu00.inst        94827715                       # Total bandwidth to/from this memory (bytes/s)
system.mem_ctrls.bw_total::cpu00.data       293058781                       # Total bandwidth to/from this memory (bytes/s)
system.mem_ctrls.bw_total::cpu01.inst        10062742                       # Total bandwidth to/from this memory (bytes/s)
system.mem_ctrls.bw_total::cpu01.data         5056156                       # Total bandwidth to/from this memory (bytes/s)
system.mem_ctrls.bw_total::cpu02.inst         1586245                       # Total bandwidth to/from this memory (bytes/s)
system.mem_ctrls.bw_total::cpu02.data         5452718                       # Total bandwidth to/from this memory (bytes/s)
system.mem_ctrls.bw_total::cpu03.inst          297421                       # Total bandwidth to/from this memory (bytes/s)
system.mem_ctrls.bw_total::cpu03.data         5254437                       # Total bandwidth to/from this memory (bytes/s)
system.mem_ctrls.bw_total::cpu04.inst          545272                       # Total bandwidth to/from this memory (bytes/s)
system.mem_ctrls.bw_total::cpu04.data         5155297                       # Total bandwidth to/from this memory (bytes/s)
system.mem_ctrls.bw_total::cpu05.inst          842693                       # Total bandwidth to/from this memory (bytes/s)
system.mem_ctrls.bw_total::cpu05.data         4857876                       # Total bandwidth to/from this memory (bytes/s)
system.mem_ctrls.bw_total::cpu06.inst         2428938                       # Total bandwidth to/from this memory (bytes/s)
system.mem_ctrls.bw_total::cpu06.data         4907446                       # Total bandwidth to/from this memory (bytes/s)
system.mem_ctrls.bw_total::cpu07.inst          842693                       # Total bandwidth to/from this memory (bytes/s)
system.mem_ctrls.bw_total::cpu07.data         4907446                       # Total bandwidth to/from this memory (bytes/s)
system.mem_ctrls.bw_total::cpu08.inst          446131                       # Total bandwidth to/from this memory (bytes/s)
system.mem_ctrls.bw_total::cpu08.data         3519481                       # Total bandwidth to/from this memory (bytes/s)
system.mem_ctrls.bw_total::cpu09.inst         1239254                       # Total bandwidth to/from this memory (bytes/s)
system.mem_ctrls.bw_total::cpu09.data         4312604                       # Total bandwidth to/from this memory (bytes/s)
system.mem_ctrls.bw_total::cpu10.inst         3321201                       # Total bandwidth to/from this memory (bytes/s)
system.mem_ctrls.bw_total::cpu10.data         4560455                       # Total bandwidth to/from this memory (bytes/s)
system.mem_ctrls.bw_total::cpu11.inst          743552                       # Total bandwidth to/from this memory (bytes/s)
system.mem_ctrls.bw_total::cpu11.data         4907446                       # Total bandwidth to/from this memory (bytes/s)
system.mem_ctrls.bw_total::cpu12.inst          842693                       # Total bandwidth to/from this memory (bytes/s)
system.mem_ctrls.bw_total::cpu12.data         4114323                       # Total bandwidth to/from this memory (bytes/s)
system.mem_ctrls.bw_total::cpu13.inst          346991                       # Total bandwidth to/from this memory (bytes/s)
system.mem_ctrls.bw_total::cpu13.data         3866472                       # Total bandwidth to/from this memory (bytes/s)
system.mem_ctrls.bw_total::cpu14.inst          396561                       # Total bandwidth to/from this memory (bytes/s)
system.mem_ctrls.bw_total::cpu14.data         4163893                       # Total bandwidth to/from this memory (bytes/s)
system.mem_ctrls.bw_total::cpu15.inst          495702                       # Total bandwidth to/from this memory (bytes/s)
system.mem_ctrls.bw_total::cpu15.data         3519481                       # Total bandwidth to/from this memory (bytes/s)
system.mem_ctrls.bw_total::total            540562586                       # Total bandwidth to/from this memory (bytes/s)
system.cpu00.branchPred.lookups                132738                       # Number of BP lookups
system.cpu00.branchPred.condPredicted           73933                       # Number of conditional branches predicted
system.cpu00.branchPred.condIncorrect            5697                       # Number of conditional branches incorrect
system.cpu00.branchPred.BTBLookups              88796                       # Number of BTB lookups
system.cpu00.branchPred.BTBHits                 66519                       # Number of BTB hits
system.cpu00.branchPred.BTBCorrect                  0                       # Number of correct BTB predictions (this stat may not work properly.
system.cpu00.branchPred.BTBHitPct           74.912158                       # BTB Hit Percentage
system.cpu00.branchPred.usedRAS                 26541                       # Number of times the RAS was used to get a target.
system.cpu00.branchPred.RASInCorrect               86                       # Number of incorrect RAS predictions.
system.cpu00.branchPred.indirectLookups          3653                       # Number of indirect predictor lookups.
system.cpu00.branchPred.indirectHits             2898                       # Number of indirect target hits.
system.cpu00.branchPred.indirectMisses            755                       # Number of indirect misses.
system.cpu00.branchPredindirectMispredicted          255                       # Number of mispredicted indirect branches.
system.cpu_voltage_domain.voltage                   1                       # Voltage in Volts
system.cpu_clk_domain.clock                      1159                       # Clock period in ticks
system.cpu00.dtb.fetch_hits                         0                       # ITB hits
system.cpu00.dtb.fetch_misses                       0                       # ITB misses
system.cpu00.dtb.fetch_acv                          0                       # ITB acv
system.cpu00.dtb.fetch_accesses                     0                       # ITB accesses
system.cpu00.dtb.read_hits                     182818                       # DTB read hits
system.cpu00.dtb.read_misses                      629                       # DTB read misses
system.cpu00.dtb.read_acv                           0                       # DTB read access violations
system.cpu00.dtb.read_accesses                 183447                       # DTB read accesses
system.cpu00.dtb.write_hits                    127735                       # DTB write hits
system.cpu00.dtb.write_misses                    1118                       # DTB write misses
system.cpu00.dtb.write_acv                          0                       # DTB write access violations
system.cpu00.dtb.write_accesses                128853                       # DTB write accesses
system.cpu00.dtb.data_hits                     310553                       # DTB hits
system.cpu00.dtb.data_misses                     1747                       # DTB misses
system.cpu00.dtb.data_acv                           0                       # DTB access violations
system.cpu00.dtb.data_accesses                 312300                       # DTB accesses
system.cpu00.itb.fetch_hits                    149461                       # ITB hits
system.cpu00.itb.fetch_misses                     155                       # ITB misses
system.cpu00.itb.fetch_acv                          0                       # ITB acv
system.cpu00.itb.fetch_accesses                149616                       # ITB accesses
system.cpu00.itb.read_hits                          0                       # DTB read hits
system.cpu00.itb.read_misses                        0                       # DTB read misses
system.cpu00.itb.read_acv                           0                       # DTB read access violations
system.cpu00.itb.read_accesses                      0                       # DTB read accesses
system.cpu00.itb.write_hits                         0                       # DTB write hits
system.cpu00.itb.write_misses                       0                       # DTB write misses
system.cpu00.itb.write_acv                          0                       # DTB write access violations
system.cpu00.itb.write_accesses                     0                       # DTB write accesses
system.cpu00.itb.data_hits                          0                       # DTB hits
system.cpu00.itb.data_misses                        0                       # DTB misses
system.cpu00.itb.data_acv                           0                       # DTB access violations
system.cpu00.itb.data_accesses                      0                       # DTB accesses
system.cpu00.workload.num_syscalls               2066                       # Number of system calls
system.cpu00.numCycles                        1041277                       # number of cpu cycles simulated
system.cpu00.numWorkItemsStarted                    0                       # number of work items this cpu started
system.cpu00.numWorkItemsCompleted                  0                       # number of work items this cpu completed
system.cpu00.fetch.icacheStallCycles            88359                       # Number of cycles fetch is stalled on an Icache miss
system.cpu00.fetch.Insts                      1191325                       # Number of instructions fetch has processed
system.cpu00.fetch.Branches                    132738                       # Number of branches that fetch encountered
system.cpu00.fetch.predictedBranches            95958                       # Number of branches that fetch has predicted taken
system.cpu00.fetch.Cycles                      730515                       # Number of cycles fetch has run and was not squashing or blocked
system.cpu00.fetch.SquashCycles                 12766                       # Number of cycles fetch has spent squashing
system.cpu00.fetch.MiscStallCycles                602                       # Number of cycles fetch has spent waiting on interrupts, or bad addresses, or out of MSHRs
system.cpu00.fetch.PendingTrapStallCycles         6381                       # Number of stall cycles due to pending traps
system.cpu00.fetch.IcacheWaitRetryStallCycles          699                       # Number of stall cycles due to full MSHR
system.cpu00.fetch.CacheLines                  149461                       # Number of cache lines fetched
system.cpu00.fetch.IcacheSquashes                2712                       # Number of outstanding Icache misses that were squashed
system.cpu00.fetch.rateDist::samples           832939                       # Number of instructions fetched each cycle (Total)
system.cpu00.fetch.rateDist::mean            1.430267                       # Number of instructions fetched each cycle (Total)
system.cpu00.fetch.rateDist::stdev           2.704777                       # Number of instructions fetched each cycle (Total)
system.cpu00.fetch.rateDist::underflows             0      0.00%      0.00% # Number of instructions fetched each cycle (Total)
system.cpu00.fetch.rateDist::0                 614679     73.80%     73.80% # Number of instructions fetched each cycle (Total)
system.cpu00.fetch.rateDist::1                  16460      1.98%     75.77% # Number of instructions fetched each cycle (Total)
system.cpu00.fetch.rateDist::2                  17622      2.12%     77.89% # Number of instructions fetched each cycle (Total)
system.cpu00.fetch.rateDist::3                  17035      2.05%     79.93% # Number of instructions fetched each cycle (Total)
system.cpu00.fetch.rateDist::4                  38123      4.58%     84.51% # Number of instructions fetched each cycle (Total)
system.cpu00.fetch.rateDist::5                  15742      1.89%     86.40% # Number of instructions fetched each cycle (Total)
system.cpu00.fetch.rateDist::6                  18807      2.26%     88.66% # Number of instructions fetched each cycle (Total)
system.cpu00.fetch.rateDist::7                  11296      1.36%     90.01% # Number of instructions fetched each cycle (Total)
system.cpu00.fetch.rateDist::8                  83175      9.99%    100.00% # Number of instructions fetched each cycle (Total)
system.cpu00.fetch.rateDist::overflows              0      0.00%    100.00% # Number of instructions fetched each cycle (Total)
system.cpu00.fetch.rateDist::min_value              0                       # Number of instructions fetched each cycle (Total)
system.cpu00.fetch.rateDist::max_value              8                       # Number of instructions fetched each cycle (Total)
system.cpu00.fetch.rateDist::total             832939                       # Number of instructions fetched each cycle (Total)
system.cpu00.fetch.branchRate                0.127476                       # Number of branch fetches per cycle
system.cpu00.fetch.rate                      1.144100                       # Number of inst fetches per cycle
system.cpu00.decode.IdleCycles                  94443                       # Number of cycles decode is idle
system.cpu00.decode.BlockedCycles              570798                       # Number of cycles decode is blocked
system.cpu00.decode.RunCycles                  129421                       # Number of cycles decode is running
system.cpu00.decode.UnblockCycles               33622                       # Number of cycles decode is unblocking
system.cpu00.decode.SquashCycles                 4655                       # Number of cycles decode is squashing
system.cpu00.decode.BranchResolved              26481                       # Number of times decode resolved a branch
system.cpu00.decode.BranchMispred                1764                       # Number of times decode detected a branch misprediction
system.cpu00.decode.DecodedInsts              1126120                       # Number of instructions handled by decode
system.cpu00.decode.SquashedInsts                7326                       # Number of squashed instructions handled by decode
system.cpu00.rename.SquashCycles                 4655                       # Number of cycles rename is squashing
system.cpu00.rename.IdleCycles                 110426                       # Number of cycles rename is idle
system.cpu00.rename.BlockCycles                 96263                       # Number of cycles rename is blocking
system.cpu00.rename.serializeStallCycles       220960                       # count of cycles rename stalled for serializing inst
system.cpu00.rename.RunCycles                  147161                       # Number of cycles rename is running
system.cpu00.rename.UnblockCycles              253474                       # Number of cycles rename is unblocking
system.cpu00.rename.RenamedInsts              1106735                       # Number of instructions processed by rename
system.cpu00.rename.ROBFullEvents                2873                       # Number of times rename has blocked due to ROB full
system.cpu00.rename.IQFullEvents                23100                       # Number of times rename has blocked due to IQ full
system.cpu00.rename.LQFullEvents                 2408                       # Number of times rename has blocked due to LQ full
system.cpu00.rename.SQFullEvents               217635                       # Number of times rename has blocked due to SQ full
system.cpu00.rename.RenamedOperands            758697                       # Number of destination operands rename has renamed
system.cpu00.rename.RenameLookups             1370197                       # Number of register rename lookups that rename has made
system.cpu00.rename.int_rename_lookups        1211951                       # Number of integer rename lookups
system.cpu00.rename.fp_rename_lookups          155959                       # Number of floating rename lookups
system.cpu00.rename.CommittedMaps              668919                       # Number of HB maps that are committed
system.cpu00.rename.UndoneMaps                  89778                       # Number of HB maps that are undone due to squashing
system.cpu00.rename.serializingInsts             4029                       # count of serializing insts renamed
system.cpu00.rename.tempSerializingInsts         1660                       # count of temporary serializing insts renamed
system.cpu00.rename.skidInsts                  150532                       # count of insts added to the skid buffer
system.cpu00.memDep0.insertedLoads             180008                       # Number of loads inserted to the mem dependence unit.
system.cpu00.memDep0.insertedStores            135351                       # Number of stores inserted to the mem dependence unit.
system.cpu00.memDep0.conflictingLoads           32306                       # Number of conflicting loads.
system.cpu00.memDep0.conflictingStores          12525                       # Number of conflicting stores.
system.cpu00.iq.iqInstsAdded                   969612                       # Number of instructions added to the IQ (excludes non-spec)
system.cpu00.iq.iqNonSpecInstsAdded              2744                       # Number of non-speculative instructions added to the IQ
system.cpu00.iq.iqInstsIssued                  954198                       # Number of instructions issued
system.cpu00.iq.iqSquashedInstsIssued            1940                       # Number of squashed instructions issued
system.cpu00.iq.iqSquashedInstsExamined        102344                       # Number of squashed instructions iterated over during squash; mainly for profiling
system.cpu00.iq.iqSquashedOperandsExamined        52080                       # Number of squashed operands that are examined and possibly removed from graph
system.cpu00.iq.iqSquashedNonSpecRemoved          368                       # Number of squashed non-spec instructions that were removed
system.cpu00.iq.issued_per_cycle::samples       832939                       # Number of insts issued each cycle
system.cpu00.iq.issued_per_cycle::mean       1.145580                       # Number of insts issued each cycle
system.cpu00.iq.issued_per_cycle::stdev      1.917530                       # Number of insts issued each cycle
system.cpu00.iq.issued_per_cycle::underflows            0      0.00%      0.00% # Number of insts issued each cycle
system.cpu00.iq.issued_per_cycle::0            532561     63.94%     63.94% # Number of insts issued each cycle
system.cpu00.iq.issued_per_cycle::1             75225      9.03%     72.97% # Number of insts issued each cycle
system.cpu00.iq.issued_per_cycle::2             61467      7.38%     80.35% # Number of insts issued each cycle
system.cpu00.iq.issued_per_cycle::3             45511      5.46%     85.81% # Number of insts issued each cycle
system.cpu00.iq.issued_per_cycle::4             43761      5.25%     91.07% # Number of insts issued each cycle
system.cpu00.iq.issued_per_cycle::5             28582      3.43%     94.50% # Number of insts issued each cycle
system.cpu00.iq.issued_per_cycle::6             26826      3.22%     97.72% # Number of insts issued each cycle
system.cpu00.iq.issued_per_cycle::7             11452      1.37%     99.09% # Number of insts issued each cycle
system.cpu00.iq.issued_per_cycle::8              7554      0.91%    100.00% # Number of insts issued each cycle
system.cpu00.iq.issued_per_cycle::overflows            0      0.00%    100.00% # Number of insts issued each cycle
system.cpu00.iq.issued_per_cycle::min_value            0                       # Number of insts issued each cycle
system.cpu00.iq.issued_per_cycle::max_value            8                       # Number of insts issued each cycle
system.cpu00.iq.issued_per_cycle::total        832939                       # Number of insts issued each cycle
system.cpu00.iq.fu_full::No_OpClass                 0      0.00%      0.00% # attempts to use FU when none available
system.cpu00.iq.fu_full::IntAlu                  4959     15.87%     15.87% # attempts to use FU when none available
system.cpu00.iq.fu_full::IntMult                 4097     13.11%     28.98% # attempts to use FU when none available
system.cpu00.iq.fu_full::IntDiv                     0      0.00%     28.98% # attempts to use FU when none available
system.cpu00.iq.fu_full::FloatAdd                  83      0.27%     29.25% # attempts to use FU when none available
system.cpu00.iq.fu_full::FloatCmp                   0      0.00%     29.25% # attempts to use FU when none available
system.cpu00.iq.fu_full::FloatCvt                   0      0.00%     29.25% # attempts to use FU when none available
system.cpu00.iq.fu_full::FloatMult               5850     18.72%     47.97% # attempts to use FU when none available
system.cpu00.iq.fu_full::FloatDiv                   0      0.00%     47.97% # attempts to use FU when none available
system.cpu00.iq.fu_full::FloatSqrt                  0      0.00%     47.97% # attempts to use FU when none available
system.cpu00.iq.fu_full::SimdAdd                    0      0.00%     47.97% # attempts to use FU when none available
system.cpu00.iq.fu_full::SimdAddAcc                 0      0.00%     47.97% # attempts to use FU when none available
system.cpu00.iq.fu_full::SimdAlu                    0      0.00%     47.97% # attempts to use FU when none available
system.cpu00.iq.fu_full::SimdCmp                    0      0.00%     47.97% # attempts to use FU when none available
system.cpu00.iq.fu_full::SimdCvt                    0      0.00%     47.97% # attempts to use FU when none available
system.cpu00.iq.fu_full::SimdMisc                   0      0.00%     47.97% # attempts to use FU when none available
system.cpu00.iq.fu_full::SimdMult                   0      0.00%     47.97% # attempts to use FU when none available
system.cpu00.iq.fu_full::SimdMultAcc                0      0.00%     47.97% # attempts to use FU when none available
system.cpu00.iq.fu_full::SimdShift                  0      0.00%     47.97% # attempts to use FU when none available
system.cpu00.iq.fu_full::SimdShiftAcc               0      0.00%     47.97% # attempts to use FU when none available
system.cpu00.iq.fu_full::SimdSqrt                   0      0.00%     47.97% # attempts to use FU when none available
system.cpu00.iq.fu_full::SimdFloatAdd               0      0.00%     47.97% # attempts to use FU when none available
system.cpu00.iq.fu_full::SimdFloatAlu               0      0.00%     47.97% # attempts to use FU when none available
system.cpu00.iq.fu_full::SimdFloatCmp               0      0.00%     47.97% # attempts to use FU when none available
system.cpu00.iq.fu_full::SimdFloatCvt               0      0.00%     47.97% # attempts to use FU when none available
system.cpu00.iq.fu_full::SimdFloatDiv               0      0.00%     47.97% # attempts to use FU when none available
system.cpu00.iq.fu_full::SimdFloatMisc              0      0.00%     47.97% # attempts to use FU when none available
system.cpu00.iq.fu_full::SimdFloatMult              0      0.00%     47.97% # attempts to use FU when none available
system.cpu00.iq.fu_full::SimdFloatMultAcc            0      0.00%     47.97% # attempts to use FU when none available
system.cpu00.iq.fu_full::SimdFloatSqrt              0      0.00%     47.97% # attempts to use FU when none available
system.cpu00.iq.fu_full::MemRead                 9974     31.92%     79.88% # attempts to use FU when none available
system.cpu00.iq.fu_full::MemWrite                6286     20.12%    100.00% # attempts to use FU when none available
system.cpu00.iq.fu_full::IprAccess                  0      0.00%    100.00% # attempts to use FU when none available
system.cpu00.iq.fu_full::InstPrefetch               0      0.00%    100.00% # attempts to use FU when none available
system.cpu00.iq.FU_type_0::No_OpClass               0      0.00%      0.00% # Type of FU issued
system.cpu00.iq.FU_type_0::IntAlu              551431     57.79%     57.79% # Type of FU issued
system.cpu00.iq.FU_type_0::IntMult              12790      1.34%     59.13% # Type of FU issued
system.cpu00.iq.FU_type_0::IntDiv                   0      0.00%     59.13% # Type of FU issued
system.cpu00.iq.FU_type_0::FloatAdd             35723      3.74%     62.87% # Type of FU issued
system.cpu00.iq.FU_type_0::FloatCmp                 8      0.00%     62.88% # Type of FU issued
system.cpu00.iq.FU_type_0::FloatCvt                 0      0.00%     62.88% # Type of FU issued
system.cpu00.iq.FU_type_0::FloatMult            37110      3.89%     66.76% # Type of FU issued
system.cpu00.iq.FU_type_0::FloatDiv                15      0.00%     66.77% # Type of FU issued
system.cpu00.iq.FU_type_0::FloatSqrt                0      0.00%     66.77% # Type of FU issued
system.cpu00.iq.FU_type_0::SimdAdd                  0      0.00%     66.77% # Type of FU issued
system.cpu00.iq.FU_type_0::SimdAddAcc               0      0.00%     66.77% # Type of FU issued
system.cpu00.iq.FU_type_0::SimdAlu                  0      0.00%     66.77% # Type of FU issued
system.cpu00.iq.FU_type_0::SimdCmp                  0      0.00%     66.77% # Type of FU issued
system.cpu00.iq.FU_type_0::SimdCvt                  0      0.00%     66.77% # Type of FU issued
system.cpu00.iq.FU_type_0::SimdMisc                 0      0.00%     66.77% # Type of FU issued
system.cpu00.iq.FU_type_0::SimdMult                 0      0.00%     66.77% # Type of FU issued
system.cpu00.iq.FU_type_0::SimdMultAcc              0      0.00%     66.77% # Type of FU issued
system.cpu00.iq.FU_type_0::SimdShift                0      0.00%     66.77% # Type of FU issued
system.cpu00.iq.FU_type_0::SimdShiftAcc             0      0.00%     66.77% # Type of FU issued
system.cpu00.iq.FU_type_0::SimdSqrt                 0      0.00%     66.77% # Type of FU issued
system.cpu00.iq.FU_type_0::SimdFloatAdd             0      0.00%     66.77% # Type of FU issued
system.cpu00.iq.FU_type_0::SimdFloatAlu             0      0.00%     66.77% # Type of FU issued
system.cpu00.iq.FU_type_0::SimdFloatCmp             0      0.00%     66.77% # Type of FU issued
system.cpu00.iq.FU_type_0::SimdFloatCvt             0      0.00%     66.77% # Type of FU issued
system.cpu00.iq.FU_type_0::SimdFloatDiv             0      0.00%     66.77% # Type of FU issued
system.cpu00.iq.FU_type_0::SimdFloatMisc            0      0.00%     66.77% # Type of FU issued
system.cpu00.iq.FU_type_0::SimdFloatMult            0      0.00%     66.77% # Type of FU issued
system.cpu00.iq.FU_type_0::SimdFloatMultAcc            0      0.00%     66.77% # Type of FU issued
system.cpu00.iq.FU_type_0::SimdFloatSqrt            0      0.00%     66.77% # Type of FU issued
system.cpu00.iq.FU_type_0::MemRead             186692     19.57%     86.33% # Type of FU issued
system.cpu00.iq.FU_type_0::MemWrite            130429     13.67%    100.00% # Type of FU issued
system.cpu00.iq.FU_type_0::IprAccess                0      0.00%    100.00% # Type of FU issued
system.cpu00.iq.FU_type_0::InstPrefetch             0      0.00%    100.00% # Type of FU issued
system.cpu00.iq.FU_type_0::total               954198                       # Type of FU issued
system.cpu00.iq.rate                         0.916373                       # Inst issue rate
system.cpu00.iq.fu_busy_cnt                     31249                       # FU busy when requested
system.cpu00.iq.fu_busy_rate                 0.032749                       # FU busy rate (busy events/executed inst)
system.cpu00.iq.int_inst_queue_reads          2530813                       # Number of integer instruction queue reads
system.cpu00.iq.int_inst_queue_writes          951575                       # Number of integer instruction queue writes
system.cpu00.iq.int_inst_queue_wakeup_accesses       814112                       # Number of integer instruction queue wakeup accesses
system.cpu00.iq.fp_inst_queue_reads            243711                       # Number of floating instruction queue reads
system.cpu00.iq.fp_inst_queue_writes           123548                       # Number of floating instruction queue writes
system.cpu00.iq.fp_inst_queue_wakeup_accesses       117009                       # Number of floating instruction queue wakeup accesses
system.cpu00.iq.int_alu_accesses               860270                       # Number of integer alu accesses
system.cpu00.iq.fp_alu_accesses                125177                       # Number of floating point alu accesses
system.cpu00.iew.lsq.thread0.forwLoads          21299                       # Number of loads that had data forwarded from stores
system.cpu00.iew.lsq.thread0.invAddrLoads            0                       # Number of loads ignored due to an invalid address
system.cpu00.iew.lsq.thread0.squashedLoads        19011                       # Number of loads squashed
system.cpu00.iew.lsq.thread0.ignoredResponses           83                       # Number of memory responses ignored because the instruction is squashed
system.cpu00.iew.lsq.thread0.memOrderViolation          434                       # Number of memory ordering violations
system.cpu00.iew.lsq.thread0.squashedStores        15824                       # Number of stores squashed
system.cpu00.iew.lsq.thread0.invAddrSwpfs            0                       # Number of software prefetches ignored due to an invalid address
system.cpu00.iew.lsq.thread0.blockedLoads            0                       # Number of blocked loads due to partial load-store forwarding
system.cpu00.iew.lsq.thread0.rescheduledLoads          213                       # Number of loads that were rescheduled
system.cpu00.iew.lsq.thread0.cacheBlocked        11730                       # Number of times an access to memory failed due to the cache being blocked
system.cpu00.iew.iewIdleCycles                      0                       # Number of cycles IEW is idle
system.cpu00.iew.iewSquashCycles                 4655                       # Number of cycles IEW is squashing
system.cpu00.iew.iewBlockCycles                 24146                       # Number of cycles IEW is blocking
system.cpu00.iew.iewUnblockCycles               63394                       # Number of cycles IEW is unblocking
system.cpu00.iew.iewDispatchedInsts           1080095                       # Number of instructions dispatched to IQ
system.cpu00.iew.iewDispSquashedInsts            1366                       # Number of squashed instructions skipped by dispatch
system.cpu00.iew.iewDispLoadInsts              180008                       # Number of dispatched load instructions
system.cpu00.iew.iewDispStoreInsts             135351                       # Number of dispatched store instructions
system.cpu00.iew.iewDispNonSpecInsts             1576                       # Number of dispatched non-speculative instructions
system.cpu00.iew.iewIQFullEvents                  168                       # Number of times the IQ has become full, causing a stall
system.cpu00.iew.iewLSQFullEvents               63106                       # Number of times the LSQ has become full, causing a stall
system.cpu00.iew.memOrderViolationEvents          434                       # Number of memory order violations
system.cpu00.iew.predictedTakenIncorrect         1597                       # Number of branches that were predicted taken incorrectly
system.cpu00.iew.predictedNotTakenIncorrect         3114                       # Number of branches that were predicted not taken incorrectly
system.cpu00.iew.branchMispredicts               4711                       # Number of branch mispredicts detected at execute
system.cpu00.iew.iewExecutedInsts              946681                       # Number of executed instructions
system.cpu00.iew.iewExecLoadInsts              183465                       # Number of load instructions executed
system.cpu00.iew.iewExecSquashedInsts            7517                       # Number of squashed instructions skipped in execute
system.cpu00.iew.exec_swp                           0                       # number of swp insts executed
system.cpu00.iew.exec_nop                      107739                       # number of nop insts executed
system.cpu00.iew.exec_refs                     312325                       # number of memory reference insts executed
system.cpu00.iew.exec_branches                 110462                       # Number of branches executed
system.cpu00.iew.exec_stores                   128860                       # Number of stores executed
system.cpu00.iew.exec_rate                   0.909154                       # Inst execution rate
system.cpu00.iew.wb_sent                       934693                       # cumulative count of insts sent to commit
system.cpu00.iew.wb_count                      931121                       # cumulative count of insts written-back
system.cpu00.iew.wb_producers                  545483                       # num instructions producing a value
system.cpu00.iew.wb_consumers                  777242                       # num instructions consuming a value
system.cpu00.iew.wb_rate                     0.894211                       # insts written-back per cycle
system.cpu00.iew.wb_fanout                   0.701819                       # average fanout of values written-back
system.cpu00.commit.commitSquashedInsts        106936                       # The number of squashed insts skipped by commit
system.cpu00.commit.commitNonSpecStalls          2376                       # The number of times commit has been forced to stall to communicate backwards
system.cpu00.commit.branchMispredicts            3969                       # The number of times a branch was mispredicted
system.cpu00.commit.committed_per_cycle::samples       816119                       # Number of insts commited each cycle
system.cpu00.commit.committed_per_cycle::mean     1.186916                       # Number of insts commited each cycle
system.cpu00.commit.committed_per_cycle::stdev     2.290757                       # Number of insts commited each cycle
system.cpu00.commit.committed_per_cycle::underflows            0      0.00%      0.00% # Number of insts commited each cycle
system.cpu00.commit.committed_per_cycle::0       567753     69.57%     69.57% # Number of insts commited each cycle
system.cpu00.commit.committed_per_cycle::1        51638      6.33%     75.89% # Number of insts commited each cycle
system.cpu00.commit.committed_per_cycle::2        51257      6.28%     82.18% # Number of insts commited each cycle
system.cpu00.commit.committed_per_cycle::3        29969      3.67%     85.85% # Number of insts commited each cycle
system.cpu00.commit.committed_per_cycle::4        35484      4.35%     90.20% # Number of insts commited each cycle
system.cpu00.commit.committed_per_cycle::5         8913      1.09%     91.29% # Number of insts commited each cycle
system.cpu00.commit.committed_per_cycle::6        12854      1.58%     92.86% # Number of insts commited each cycle
system.cpu00.commit.committed_per_cycle::7         5027      0.62%     93.48% # Number of insts commited each cycle
system.cpu00.commit.committed_per_cycle::8        53224      6.52%    100.00% # Number of insts commited each cycle
system.cpu00.commit.committed_per_cycle::overflows            0      0.00%    100.00% # Number of insts commited each cycle
system.cpu00.commit.committed_per_cycle::min_value            0                       # Number of insts commited each cycle
system.cpu00.commit.committed_per_cycle::max_value            8                       # Number of insts commited each cycle
system.cpu00.commit.committed_per_cycle::total       816119                       # Number of insts commited each cycle
system.cpu00.commit.committedInsts             968665                       # Number of instructions committed
system.cpu00.commit.committedOps               968665                       # Number of ops (including micro ops) committed
system.cpu00.commit.swp_count                       0                       # Number of s/w prefetches committed
system.cpu00.commit.refs                       280524                       # Number of memory references committed
system.cpu00.commit.loads                      160997                       # Number of loads committed
system.cpu00.commit.membars                      1038                       # Number of memory barriers committed
system.cpu00.commit.branches                   100146                       # Number of branches committed
system.cpu00.commit.fp_insts                   116058                       # Number of committed floating point instructions.
system.cpu00.commit.int_insts                  792139                       # Number of committed integer instructions.
system.cpu00.commit.function_calls              22222                       # Number of function calls committed.
system.cpu00.commit.op_class_0::No_OpClass        98654     10.18%     10.18% # Class of committed instruction
system.cpu00.commit.op_class_0::IntAlu         503322     51.96%     62.14% # Class of committed instruction
system.cpu00.commit.op_class_0::IntMult         12689      1.31%     63.45% # Class of committed instruction
system.cpu00.commit.op_class_0::IntDiv              0      0.00%     63.45% # Class of committed instruction
system.cpu00.commit.op_class_0::FloatAdd        35480      3.66%     67.12% # Class of committed instruction
system.cpu00.commit.op_class_0::FloatCmp            8      0.00%     67.12% # Class of committed instruction
system.cpu00.commit.op_class_0::FloatCvt            0      0.00%     67.12% # Class of committed instruction
system.cpu00.commit.op_class_0::FloatMult        36935      3.81%     70.93% # Class of committed instruction
system.cpu00.commit.op_class_0::FloatDiv           14      0.00%     70.93% # Class of committed instruction
system.cpu00.commit.op_class_0::FloatSqrt            0      0.00%     70.93% # Class of committed instruction
system.cpu00.commit.op_class_0::SimdAdd             0      0.00%     70.93% # Class of committed instruction
system.cpu00.commit.op_class_0::SimdAddAcc            0      0.00%     70.93% # Class of committed instruction
system.cpu00.commit.op_class_0::SimdAlu             0      0.00%     70.93% # Class of committed instruction
system.cpu00.commit.op_class_0::SimdCmp             0      0.00%     70.93% # Class of committed instruction
system.cpu00.commit.op_class_0::SimdCvt             0      0.00%     70.93% # Class of committed instruction
system.cpu00.commit.op_class_0::SimdMisc            0      0.00%     70.93% # Class of committed instruction
system.cpu00.commit.op_class_0::SimdMult            0      0.00%     70.93% # Class of committed instruction
system.cpu00.commit.op_class_0::SimdMultAcc            0      0.00%     70.93% # Class of committed instruction
system.cpu00.commit.op_class_0::SimdShift            0      0.00%     70.93% # Class of committed instruction
system.cpu00.commit.op_class_0::SimdShiftAcc            0      0.00%     70.93% # Class of committed instruction
system.cpu00.commit.op_class_0::SimdSqrt            0      0.00%     70.93% # Class of committed instruction
system.cpu00.commit.op_class_0::SimdFloatAdd            0      0.00%     70.93% # Class of committed instruction
system.cpu00.commit.op_class_0::SimdFloatAlu            0      0.00%     70.93% # Class of committed instruction
system.cpu00.commit.op_class_0::SimdFloatCmp            0      0.00%     70.93% # Class of committed instruction
system.cpu00.commit.op_class_0::SimdFloatCvt            0      0.00%     70.93% # Class of committed instruction
system.cpu00.commit.op_class_0::SimdFloatDiv            0      0.00%     70.93% # Class of committed instruction
system.cpu00.commit.op_class_0::SimdFloatMisc            0      0.00%     70.93% # Class of committed instruction
system.cpu00.commit.op_class_0::SimdFloatMult            0      0.00%     70.93% # Class of committed instruction
system.cpu00.commit.op_class_0::SimdFloatMultAcc            0      0.00%     70.93% # Class of committed instruction
system.cpu00.commit.op_class_0::SimdFloatSqrt            0      0.00%     70.93% # Class of committed instruction
system.cpu00.commit.op_class_0::MemRead        162035     16.73%     87.66% # Class of committed instruction
system.cpu00.commit.op_class_0::MemWrite       119528     12.34%    100.00% # Class of committed instruction
system.cpu00.commit.op_class_0::IprAccess            0      0.00%    100.00% # Class of committed instruction
system.cpu00.commit.op_class_0::InstPrefetch            0      0.00%    100.00% # Class of committed instruction
system.cpu00.commit.op_class_0::total          968665                       # Class of committed instruction
system.cpu00.commit.bw_lim_events               53224                       # number cycles where commit BW limit reached
system.cpu00.rob.rob_reads                    1834505                       # The number of ROB reads
system.cpu00.rob.rob_writes                   2168142                       # The number of ROB writes
system.cpu00.timesIdled                          1447                       # Number of times that the entire CPU went into an idle state and unscheduled itself
system.cpu00.idleCycles                        208338                       # Total number of cycles that the CPU has spent unscheduled due to idling
system.cpu00.quiesceCycles                      72701                       # Total number of cycles that CPU has spent quiesced or waiting for an interrupt
system.cpu00.committedInsts                    870011                       # Number of Instructions Simulated
system.cpu00.committedOps                      870011                       # Number of Ops (including micro ops) Simulated
system.cpu00.cpi                             1.196855                       # CPI: Cycles Per Instruction
system.cpu00.cpi_total                       1.196855                       # CPI: Total CPI of All Threads
system.cpu00.ipc                             0.835523                       # IPC: Instructions Per Cycle
system.cpu00.ipc_total                       0.835523                       # IPC: Total IPC of All Threads
system.cpu00.int_regfile_reads                1143039                       # number of integer regfile reads
system.cpu00.int_regfile_writes                613121                       # number of integer regfile writes
system.cpu00.fp_regfile_reads                  151840                       # number of floating regfile reads
system.cpu00.fp_regfile_writes                 102909                       # number of floating regfile writes
system.cpu00.misc_regfile_reads                  4742                       # number of misc regfile reads
system.cpu00.misc_regfile_writes                 2252                       # number of misc regfile writes
system.cpu00.dcache.tags.replacements           14902                       # number of replacements
system.cpu00.dcache.tags.tagsinuse          63.029037                       # Cycle average of tags in use
system.cpu00.dcache.tags.total_refs            224231                       # Total number of references to valid blocks.
system.cpu00.dcache.tags.sampled_refs           14966                       # Sample count of references to valid blocks.
system.cpu00.dcache.tags.avg_refs           14.982694                       # Average number of references to valid blocks.
system.cpu00.dcache.tags.warmup_cycle        26832009                       # Cycle when the warmup percentage was hit.
system.cpu00.dcache.tags.occ_blocks::cpu00.data    63.029037                       # Average occupied blocks per requestor
system.cpu00.dcache.tags.occ_percent::cpu00.data     0.984829                       # Average percentage of cache occupancy
system.cpu00.dcache.tags.occ_percent::total     0.984829                       # Average percentage of cache occupancy
system.cpu00.dcache.tags.occ_task_id_blocks::1024           64                       # Occupied blocks per task id
system.cpu00.dcache.tags.age_task_id_blocks_1024::0           58                       # Occupied blocks per task id
system.cpu00.dcache.tags.age_task_id_blocks_1024::1            6                       # Occupied blocks per task id
system.cpu00.dcache.tags.occ_task_id_percent::1024            1                       # Percentage of cache occupancy per task id
system.cpu00.dcache.tags.tag_accesses         1100456                       # Number of tag accesses
system.cpu00.dcache.tags.data_accesses        1100456                       # Number of data accesses
system.cpu00.dcache.ReadReq_hits::cpu00.data       139145                       # number of ReadReq hits
system.cpu00.dcache.ReadReq_hits::total        139145                       # number of ReadReq hits
system.cpu00.dcache.WriteReq_hits::cpu00.data        82988                       # number of WriteReq hits
system.cpu00.dcache.WriteReq_hits::total        82988                       # number of WriteReq hits
system.cpu00.dcache.LoadLockedReq_hits::cpu00.data          875                       # number of LoadLockedReq hits
system.cpu00.dcache.LoadLockedReq_hits::total          875                       # number of LoadLockedReq hits
system.cpu00.dcache.StoreCondReq_hits::cpu00.data         1104                       # number of StoreCondReq hits
system.cpu00.dcache.StoreCondReq_hits::total         1104                       # number of StoreCondReq hits
system.cpu00.dcache.demand_hits::cpu00.data       222133                       # number of demand (read+write) hits
system.cpu00.dcache.demand_hits::total         222133                       # number of demand (read+write) hits
system.cpu00.dcache.overall_hits::cpu00.data       222133                       # number of overall hits
system.cpu00.dcache.overall_hits::total        222133                       # number of overall hits
system.cpu00.dcache.ReadReq_misses::cpu00.data        11481                       # number of ReadReq misses
system.cpu00.dcache.ReadReq_misses::total        11481                       # number of ReadReq misses
system.cpu00.dcache.WriteReq_misses::cpu00.data        35416                       # number of WriteReq misses
system.cpu00.dcache.WriteReq_misses::total        35416                       # number of WriteReq misses
system.cpu00.dcache.LoadLockedReq_misses::cpu00.data          315                       # number of LoadLockedReq misses
system.cpu00.dcache.LoadLockedReq_misses::total          315                       # number of LoadLockedReq misses
system.cpu00.dcache.StoreCondReq_misses::cpu00.data           19                       # number of StoreCondReq misses
system.cpu00.dcache.StoreCondReq_misses::total           19                       # number of StoreCondReq misses
system.cpu00.dcache.demand_misses::cpu00.data        46897                       # number of demand (read+write) misses
system.cpu00.dcache.demand_misses::total        46897                       # number of demand (read+write) misses
system.cpu00.dcache.overall_misses::cpu00.data        46897                       # number of overall misses
system.cpu00.dcache.overall_misses::total        46897                       # number of overall misses
system.cpu00.dcache.ReadReq_miss_latency::cpu00.data    486480978                       # number of ReadReq miss cycles
system.cpu00.dcache.ReadReq_miss_latency::total    486480978                       # number of ReadReq miss cycles
system.cpu00.dcache.WriteReq_miss_latency::cpu00.data   5496420061                       # number of WriteReq miss cycles
system.cpu00.dcache.WriteReq_miss_latency::total   5496420061                       # number of WriteReq miss cycles
system.cpu00.dcache.LoadLockedReq_miss_latency::cpu00.data      3490908                       # number of LoadLockedReq miss cycles
system.cpu00.dcache.LoadLockedReq_miss_latency::total      3490908                       # number of LoadLockedReq miss cycles
system.cpu00.dcache.StoreCondReq_miss_latency::cpu00.data       332633                       # number of StoreCondReq miss cycles
system.cpu00.dcache.StoreCondReq_miss_latency::total       332633                       # number of StoreCondReq miss cycles
system.cpu00.dcache.demand_miss_latency::cpu00.data   5982901039                       # number of demand (read+write) miss cycles
system.cpu00.dcache.demand_miss_latency::total   5982901039                       # number of demand (read+write) miss cycles
system.cpu00.dcache.overall_miss_latency::cpu00.data   5982901039                       # number of overall miss cycles
system.cpu00.dcache.overall_miss_latency::total   5982901039                       # number of overall miss cycles
system.cpu00.dcache.ReadReq_accesses::cpu00.data       150626                       # number of ReadReq accesses(hits+misses)
system.cpu00.dcache.ReadReq_accesses::total       150626                       # number of ReadReq accesses(hits+misses)
system.cpu00.dcache.WriteReq_accesses::cpu00.data       118404                       # number of WriteReq accesses(hits+misses)
system.cpu00.dcache.WriteReq_accesses::total       118404                       # number of WriteReq accesses(hits+misses)
system.cpu00.dcache.LoadLockedReq_accesses::cpu00.data         1190                       # number of LoadLockedReq accesses(hits+misses)
system.cpu00.dcache.LoadLockedReq_accesses::total         1190                       # number of LoadLockedReq accesses(hits+misses)
system.cpu00.dcache.StoreCondReq_accesses::cpu00.data         1123                       # number of StoreCondReq accesses(hits+misses)
system.cpu00.dcache.StoreCondReq_accesses::total         1123                       # number of StoreCondReq accesses(hits+misses)
system.cpu00.dcache.demand_accesses::cpu00.data       269030                       # number of demand (read+write) accesses
system.cpu00.dcache.demand_accesses::total       269030                       # number of demand (read+write) accesses
system.cpu00.dcache.overall_accesses::cpu00.data       269030                       # number of overall (read+write) accesses
system.cpu00.dcache.overall_accesses::total       269030                       # number of overall (read+write) accesses
system.cpu00.dcache.ReadReq_miss_rate::cpu00.data     0.076222                       # miss rate for ReadReq accesses
system.cpu00.dcache.ReadReq_miss_rate::total     0.076222                       # miss rate for ReadReq accesses
system.cpu00.dcache.WriteReq_miss_rate::cpu00.data     0.299112                       # miss rate for WriteReq accesses
system.cpu00.dcache.WriteReq_miss_rate::total     0.299112                       # miss rate for WriteReq accesses
system.cpu00.dcache.LoadLockedReq_miss_rate::cpu00.data     0.264706                       # miss rate for LoadLockedReq accesses
system.cpu00.dcache.LoadLockedReq_miss_rate::total     0.264706                       # miss rate for LoadLockedReq accesses
system.cpu00.dcache.StoreCondReq_miss_rate::cpu00.data     0.016919                       # miss rate for StoreCondReq accesses
system.cpu00.dcache.StoreCondReq_miss_rate::total     0.016919                       # miss rate for StoreCondReq accesses
system.cpu00.dcache.demand_miss_rate::cpu00.data     0.174319                       # miss rate for demand accesses
system.cpu00.dcache.demand_miss_rate::total     0.174319                       # miss rate for demand accesses
system.cpu00.dcache.overall_miss_rate::cpu00.data     0.174319                       # miss rate for overall accesses
system.cpu00.dcache.overall_miss_rate::total     0.174319                       # miss rate for overall accesses
system.cpu00.dcache.ReadReq_avg_miss_latency::cpu00.data 42372.700810                       # average ReadReq miss latency
system.cpu00.dcache.ReadReq_avg_miss_latency::total 42372.700810                       # average ReadReq miss latency
system.cpu00.dcache.WriteReq_avg_miss_latency::cpu00.data 155195.958352                       # average WriteReq miss latency
system.cpu00.dcache.WriteReq_avg_miss_latency::total 155195.958352                       # average WriteReq miss latency
system.cpu00.dcache.LoadLockedReq_avg_miss_latency::cpu00.data 11082.247619                       # average LoadLockedReq miss latency
system.cpu00.dcache.LoadLockedReq_avg_miss_latency::total 11082.247619                       # average LoadLockedReq miss latency
system.cpu00.dcache.StoreCondReq_avg_miss_latency::cpu00.data        17507                       # average StoreCondReq miss latency
system.cpu00.dcache.StoreCondReq_avg_miss_latency::total        17507                       # average StoreCondReq miss latency
system.cpu00.dcache.demand_avg_miss_latency::cpu00.data 127575.346803                       # average overall miss latency
system.cpu00.dcache.demand_avg_miss_latency::total 127575.346803                       # average overall miss latency
system.cpu00.dcache.overall_avg_miss_latency::cpu00.data 127575.346803                       # average overall miss latency
system.cpu00.dcache.overall_avg_miss_latency::total 127575.346803                       # average overall miss latency
system.cpu00.dcache.blocked_cycles::no_mshrs       164800                       # number of cycles access was blocked
system.cpu00.dcache.blocked_cycles::no_targets            0                       # number of cycles access was blocked
system.cpu00.dcache.blocked::no_mshrs            3406                       # number of cycles access was blocked
system.cpu00.dcache.blocked::no_targets             0                       # number of cycles access was blocked
system.cpu00.dcache.avg_blocked_cycles::no_mshrs    48.385203                       # average number of cycles each access was blocked
system.cpu00.dcache.avg_blocked_cycles::no_targets          nan                       # average number of cycles each access was blocked
system.cpu00.dcache.fast_writes                     0                       # number of fast writes performed
system.cpu00.dcache.cache_copies                    0                       # number of cache copies performed
system.cpu00.dcache.writebacks::writebacks        10760                       # number of writebacks
system.cpu00.dcache.writebacks::total           10760                       # number of writebacks
system.cpu00.dcache.ReadReq_mshr_hits::cpu00.data         3638                       # number of ReadReq MSHR hits
system.cpu00.dcache.ReadReq_mshr_hits::total         3638                       # number of ReadReq MSHR hits
system.cpu00.dcache.WriteReq_mshr_hits::cpu00.data        28274                       # number of WriteReq MSHR hits
system.cpu00.dcache.WriteReq_mshr_hits::total        28274                       # number of WriteReq MSHR hits
system.cpu00.dcache.LoadLockedReq_mshr_hits::cpu00.data          142                       # number of LoadLockedReq MSHR hits
system.cpu00.dcache.LoadLockedReq_mshr_hits::total          142                       # number of LoadLockedReq MSHR hits
system.cpu00.dcache.demand_mshr_hits::cpu00.data        31912                       # number of demand (read+write) MSHR hits
system.cpu00.dcache.demand_mshr_hits::total        31912                       # number of demand (read+write) MSHR hits
system.cpu00.dcache.overall_mshr_hits::cpu00.data        31912                       # number of overall MSHR hits
system.cpu00.dcache.overall_mshr_hits::total        31912                       # number of overall MSHR hits
system.cpu00.dcache.ReadReq_mshr_misses::cpu00.data         7843                       # number of ReadReq MSHR misses
system.cpu00.dcache.ReadReq_mshr_misses::total         7843                       # number of ReadReq MSHR misses
system.cpu00.dcache.WriteReq_mshr_misses::cpu00.data         7142                       # number of WriteReq MSHR misses
system.cpu00.dcache.WriteReq_mshr_misses::total         7142                       # number of WriteReq MSHR misses
system.cpu00.dcache.LoadLockedReq_mshr_misses::cpu00.data          173                       # number of LoadLockedReq MSHR misses
system.cpu00.dcache.LoadLockedReq_mshr_misses::total          173                       # number of LoadLockedReq MSHR misses
system.cpu00.dcache.StoreCondReq_mshr_misses::cpu00.data           19                       # number of StoreCondReq MSHR misses
system.cpu00.dcache.StoreCondReq_mshr_misses::total           19                       # number of StoreCondReq MSHR misses
system.cpu00.dcache.demand_mshr_misses::cpu00.data        14985                       # number of demand (read+write) MSHR misses
system.cpu00.dcache.demand_mshr_misses::total        14985                       # number of demand (read+write) MSHR misses
system.cpu00.dcache.overall_mshr_misses::cpu00.data        14985                       # number of overall MSHR misses
system.cpu00.dcache.overall_mshr_misses::total        14985                       # number of overall MSHR misses
system.cpu00.dcache.ReadReq_mshr_miss_latency::cpu00.data    273726825                       # number of ReadReq MSHR miss cycles
system.cpu00.dcache.ReadReq_mshr_miss_latency::total    273726825                       # number of ReadReq MSHR miss cycles
system.cpu00.dcache.WriteReq_mshr_miss_latency::cpu00.data   1167302946                       # number of WriteReq MSHR miss cycles
system.cpu00.dcache.WriteReq_mshr_miss_latency::total   1167302946                       # number of WriteReq MSHR miss cycles
system.cpu00.dcache.LoadLockedReq_mshr_miss_latency::cpu00.data      1741977                       # number of LoadLockedReq MSHR miss cycles
system.cpu00.dcache.LoadLockedReq_mshr_miss_latency::total      1741977                       # number of LoadLockedReq MSHR miss cycles
system.cpu00.dcache.StoreCondReq_mshr_miss_latency::cpu00.data       310612                       # number of StoreCondReq MSHR miss cycles
system.cpu00.dcache.StoreCondReq_mshr_miss_latency::total       310612                       # number of StoreCondReq MSHR miss cycles
system.cpu00.dcache.demand_mshr_miss_latency::cpu00.data   1441029771                       # number of demand (read+write) MSHR miss cycles
system.cpu00.dcache.demand_mshr_miss_latency::total   1441029771                       # number of demand (read+write) MSHR miss cycles
system.cpu00.dcache.overall_mshr_miss_latency::cpu00.data   1441029771                       # number of overall MSHR miss cycles
system.cpu00.dcache.overall_mshr_miss_latency::total   1441029771                       # number of overall MSHR miss cycles
system.cpu00.dcache.ReadReq_mshr_miss_rate::cpu00.data     0.052069                       # mshr miss rate for ReadReq accesses
system.cpu00.dcache.ReadReq_mshr_miss_rate::total     0.052069                       # mshr miss rate for ReadReq accesses
system.cpu00.dcache.WriteReq_mshr_miss_rate::cpu00.data     0.060319                       # mshr miss rate for WriteReq accesses
system.cpu00.dcache.WriteReq_mshr_miss_rate::total     0.060319                       # mshr miss rate for WriteReq accesses
system.cpu00.dcache.LoadLockedReq_mshr_miss_rate::cpu00.data     0.145378                       # mshr miss rate for LoadLockedReq accesses
system.cpu00.dcache.LoadLockedReq_mshr_miss_rate::total     0.145378                       # mshr miss rate for LoadLockedReq accesses
system.cpu00.dcache.StoreCondReq_mshr_miss_rate::cpu00.data     0.016919                       # mshr miss rate for StoreCondReq accesses
system.cpu00.dcache.StoreCondReq_mshr_miss_rate::total     0.016919                       # mshr miss rate for StoreCondReq accesses
system.cpu00.dcache.demand_mshr_miss_rate::cpu00.data     0.055700                       # mshr miss rate for demand accesses
system.cpu00.dcache.demand_mshr_miss_rate::total     0.055700                       # mshr miss rate for demand accesses
system.cpu00.dcache.overall_mshr_miss_rate::cpu00.data     0.055700                       # mshr miss rate for overall accesses
system.cpu00.dcache.overall_mshr_miss_rate::total     0.055700                       # mshr miss rate for overall accesses
system.cpu00.dcache.ReadReq_avg_mshr_miss_latency::cpu00.data 34900.780951                       # average ReadReq mshr miss latency
system.cpu00.dcache.ReadReq_avg_mshr_miss_latency::total 34900.780951                       # average ReadReq mshr miss latency
system.cpu00.dcache.WriteReq_avg_mshr_miss_latency::cpu00.data 163442.025483                       # average WriteReq mshr miss latency
system.cpu00.dcache.WriteReq_avg_mshr_miss_latency::total 163442.025483                       # average WriteReq mshr miss latency
[...]
system.tol2bus.pkt_count_system.cpu06.dcache.mem_side::system.l2.cpu_side         1631                       # Packet count per connected master and slave (bytes)
system.tol2bus.pkt_count_system.cpu07.icache.mem_side::system.l2.cpu_side         1875                       # Packet count per connected master and slave (bytes)
system.tol2bus.pkt_count_system.cpu07.dcache.mem_side::system.l2.cpu_side         2500                       # Packet count per connected master and slave (bytes)
system.tol2bus.pkt_count_system.cpu08.icache.mem_side::system.l2.cpu_side         1233                       # Packet count per connected master and slave (bytes)
system.tol2bus.pkt_count_system.cpu08.dcache.mem_side::system.l2.cpu_side         1315                       # Packet count per connected master and slave (bytes)
system.tol2bus.pkt_count_system.cpu09.icache.mem_side::system.l2.cpu_side         1504                       # Packet count per connected master and slave (bytes)
system.tol2bus.pkt_count_system.cpu09.dcache.mem_side::system.l2.cpu_side         1891                       # Packet count per connected master and slave (bytes)
system.tol2bus.pkt_count_system.cpu10.icache.mem_side::system.l2.cpu_side         2238                       # Packet count per connected master and slave (bytes)
system.tol2bus.pkt_count_system.cpu10.dcache.mem_side::system.l2.cpu_side         2266                       # Packet count per connected master and slave (bytes)
system.tol2bus.pkt_count_system.cpu11.icache.mem_side::system.l2.cpu_side         2377                       # Packet count per connected master and slave (bytes)
system.tol2bus.pkt_count_system.cpu11.dcache.mem_side::system.l2.cpu_side         3155                       # Packet count per connected master and slave (bytes)
system.tol2bus.pkt_count_system.cpu12.icache.mem_side::system.l2.cpu_side         2905                       # Packet count per connected master and slave (bytes)
system.tol2bus.pkt_count_system.cpu12.dcache.mem_side::system.l2.cpu_side         3985                       # Packet count per connected master and slave (bytes)
system.tol2bus.pkt_count_system.cpu13.icache.mem_side::system.l2.cpu_side         1011                       # Packet count per connected master and slave (bytes)
system.tol2bus.pkt_count_system.cpu13.dcache.mem_side::system.l2.cpu_side         1248                       # Packet count per connected master and slave (bytes)
system.tol2bus.pkt_count_system.cpu14.icache.mem_side::system.l2.cpu_side          922                       # Packet count per connected master and slave (bytes)
system.tol2bus.pkt_count_system.cpu14.dcache.mem_side::system.l2.cpu_side         1298                       # Packet count per connected master and slave (bytes)
system.tol2bus.pkt_count_system.cpu15.icache.mem_side::system.l2.cpu_side         1133                       # Packet count per connected master and slave (bytes)
system.tol2bus.pkt_count_system.cpu15.dcache.mem_side::system.l2.cpu_side         1271                       # Packet count per connected master and slave (bytes)
system.tol2bus.pkt_count::total                133752                       # Packet count per connected master and slave (bytes)
system.tol2bus.pkt_size_system.cpu00.icache.mem_side::system.l2.cpu_side       973184                       # Cumulative packet size per connected master and slave (bytes)
system.tol2bus.pkt_size_system.cpu00.dcache.mem_side::system.l2.cpu_side      1636288                       # Cumulative packet size per connected master and slave (bytes)
system.tol2bus.pkt_size_system.cpu01.icache.mem_side::system.l2.cpu_side        85440                       # Cumulative packet size per connected master and slave (bytes)
system.tol2bus.pkt_size_system.cpu01.dcache.mem_side::system.l2.cpu_side        72512                       # Cumulative packet size per connected master and slave (bytes)
system.tol2bus.pkt_size_system.cpu02.icache.mem_side::system.l2.cpu_side        92864                       # Cumulative packet size per connected master and slave (bytes)
system.tol2bus.pkt_size_system.cpu02.dcache.mem_side::system.l2.cpu_side        79040                       # Cumulative packet size per connected master and slave (bytes)
system.tol2bus.pkt_size_system.cpu03.icache.mem_side::system.l2.cpu_side        95232                       # Cumulative packet size per connected master and slave (bytes)
system.tol2bus.pkt_size_system.cpu03.dcache.mem_side::system.l2.cpu_side        76608                       # Cumulative packet size per connected master and slave (bytes)
system.tol2bus.pkt_size_system.cpu04.icache.mem_side::system.l2.cpu_side        89792                       # Cumulative packet size per connected master and slave (bytes)
system.tol2bus.pkt_size_system.cpu04.dcache.mem_side::system.l2.cpu_side        74048                       # Cumulative packet size per connected master and slave (bytes)
system.tol2bus.pkt_size_system.cpu05.icache.mem_side::system.l2.cpu_side       107712                       # Cumulative packet size per connected master and slave (bytes)
system.tol2bus.pkt_size_system.cpu05.dcache.mem_side::system.l2.cpu_side        90880                       # Cumulative packet size per connected master and slave (bytes)
system.tol2bus.pkt_size_system.cpu06.icache.mem_side::system.l2.cpu_side        61184                       # Cumulative packet size per connected master and slave (bytes)
system.tol2bus.pkt_size_system.cpu06.dcache.mem_side::system.l2.cpu_side        46400                       # Cumulative packet size per connected master and slave (bytes)
system.tol2bus.pkt_size_system.cpu07.icache.mem_side::system.l2.cpu_side        70272                       # Cumulative packet size per connected master and slave (bytes)
system.tol2bus.pkt_size_system.cpu07.dcache.mem_side::system.l2.cpu_side        50752                       # Cumulative packet size per connected master and slave (bytes)
system.tol2bus.pkt_size_system.cpu08.icache.mem_side::system.l2.cpu_side        43392                       # Cumulative packet size per connected master and slave (bytes)
system.tol2bus.pkt_size_system.cpu08.dcache.mem_side::system.l2.cpu_side        38400                       # Cumulative packet size per connected master and slave (bytes)
system.tol2bus.pkt_size_system.cpu09.icache.mem_side::system.l2.cpu_side        54464                       # Cumulative packet size per connected master and slave (bytes)
system.tol2bus.pkt_size_system.cpu09.dcache.mem_side::system.l2.cpu_side        45440                       # Cumulative packet size per connected master and slave (bytes)
system.tol2bus.pkt_size_system.cpu10.icache.mem_side::system.l2.cpu_side        85312                       # Cumulative packet size per connected master and slave (bytes)
system.tol2bus.pkt_size_system.cpu10.dcache.mem_side::system.l2.cpu_side        67904                       # Cumulative packet size per connected master and slave (bytes)
system.tol2bus.pkt_size_system.cpu11.icache.mem_side::system.l2.cpu_side        91328                       # Cumulative packet size per connected master and slave (bytes)
system.tol2bus.pkt_size_system.cpu11.dcache.mem_side::system.l2.cpu_side        75392                       # Cumulative packet size per connected master and slave (bytes)
system.tol2bus.pkt_size_system.cpu12.icache.mem_side::system.l2.cpu_side       113600                       # Cumulative packet size per connected master and slave (bytes)
system.tol2bus.pkt_size_system.cpu12.dcache.mem_side::system.l2.cpu_side       108288                       # Cumulative packet size per connected master and slave (bytes)
system.tol2bus.pkt_size_system.cpu13.icache.mem_side::system.l2.cpu_side        34816                       # Cumulative packet size per connected master and slave (bytes)
system.tol2bus.pkt_size_system.cpu13.dcache.mem_side::system.l2.cpu_side        34304                       # Cumulative packet size per connected master and slave (bytes)
system.tol2bus.pkt_size_system.cpu14.icache.mem_side::system.l2.cpu_side        31232                       # Cumulative packet size per connected master and slave (bytes)
system.tol2bus.pkt_size_system.cpu14.dcache.mem_side::system.l2.cpu_side        41792                       # Cumulative packet size per connected master and slave (bytes)
system.tol2bus.pkt_size_system.cpu15.icache.mem_side::system.l2.cpu_side        39680                       # Cumulative packet size per connected master and slave (bytes)
system.tol2bus.pkt_size_system.cpu15.dcache.mem_side::system.l2.cpu_side        36800                       # Cumulative packet size per connected master and slave (bytes)
system.tol2bus.pkt_size::total                4644352                       # Cumulative packet size per connected master and slave (bytes)
system.tol2bus.snoops                            7920                       # Total snoops (count)
system.tol2bus.snoop_fanout::samples            52684                       # Request fanout histogram
system.tol2bus.snoop_fanout::mean            2.104871                       # Request fanout histogram
system.tol2bus.snoop_fanout::stdev           3.736610                       # Request fanout histogram
system.tol2bus.snoop_fanout::underflows             0      0.00%      0.00% # Request fanout histogram
system.tol2bus.snoop_fanout::0                  30861     58.58%     58.58% # Request fanout histogram
system.tol2bus.snoop_fanout::1                   7129     13.53%     72.11% # Request fanout histogram
system.tol2bus.snoop_fanout::2                   2216      4.21%     76.32% # Request fanout histogram
system.tol2bus.snoop_fanout::3                   1438      2.73%     79.04% # Request fanout histogram
system.tol2bus.snoop_fanout::4                   1272      2.41%     81.46% # Request fanout histogram
system.tol2bus.snoop_fanout::5                   1236      2.35%     83.81% # Request fanout histogram
system.tol2bus.snoop_fanout::6                   1204      2.29%     86.09% # Request fanout histogram
system.tol2bus.snoop_fanout::7                   1125      2.14%     88.23% # Request fanout histogram
system.tol2bus.snoop_fanout::8                   1010      1.92%     90.14% # Request fanout histogram
system.tol2bus.snoop_fanout::9                    903      1.71%     91.86% # Request fanout histogram
system.tol2bus.snoop_fanout::10                   825      1.57%     93.42% # Request fanout histogram
system.tol2bus.snoop_fanout::11                   836      1.59%     95.01% # Request fanout histogram
system.tol2bus.snoop_fanout::12                   763      1.45%     96.46% # Request fanout histogram
system.tol2bus.snoop_fanout::13                   730      1.39%     97.84% # Request fanout histogram
system.tol2bus.snoop_fanout::14                   690      1.31%     99.15% # Request fanout histogram
system.tol2bus.snoop_fanout::15                   444      0.84%    100.00% # Request fanout histogram
system.tol2bus.snoop_fanout::16                     2      0.00%    100.00% # Request fanout histogram
system.tol2bus.snoop_fanout::17                     0      0.00%    100.00% # Request fanout histogram
system.tol2bus.snoop_fanout::18                     0      0.00%    100.00% # Request fanout histogram
system.tol2bus.snoop_fanout::19                     0      0.00%    100.00% # Request fanout histogram
system.tol2bus.snoop_fanout::20                     0      0.00%    100.00% # Request fanout histogram
system.tol2bus.snoop_fanout::21                     0      0.00%    100.00% # Request fanout histogram
system.tol2bus.snoop_fanout::22                     0      0.00%    100.00% # Request fanout histogram
system.tol2bus.snoop_fanout::23                     0      0.00%    100.00% # Request fanout histogram
system.tol2bus.snoop_fanout::24                     0      0.00%    100.00% # Request fanout histogram
system.tol2bus.snoop_fanout::25                     0      0.00%    100.00% # Request fanout histogram
system.tol2bus.snoop_fanout::26                     0      0.00%    100.00% # Request fanout histogram
system.tol2bus.snoop_fanout::27                     0      0.00%    100.00% # Request fanout histogram
system.tol2bus.snoop_fanout::28                     0      0.00%    100.00% # Request fanout histogram
system.tol2bus.snoop_fanout::29                     0      0.00%    100.00% # Request fanout histogram
system.tol2bus.snoop_fanout::30                     0      0.00%    100.00% # Request fanout histogram
system.tol2bus.snoop_fanout::31                     0      0.00%    100.00% # Request fanout histogram
system.tol2bus.snoop_fanout::32                     0      0.00%    100.00% # Request fanout histogram
system.tol2bus.snoop_fanout::overflows              0      0.00%    100.00% # Request fanout histogram
system.tol2bus.snoop_fanout::min_value              0                       # Request fanout histogram
system.tol2bus.snoop_fanout::max_value             16                       # Request fanout histogram
system.tol2bus.snoop_fanout::total              52684                       # Request fanout histogram
system.tol2bus.reqLayer0.occupancy          170168102                       # Layer occupancy (ticks)
system.tol2bus.reqLayer0.utilization             13.2                       # Layer utilization (%)
system.tol2bus.respLayer0.occupancy          27677217                       # Layer occupancy (ticks)
system.tol2bus.respLayer0.utilization             2.1                       # Layer utilization (%)
system.tol2bus.respLayer1.occupancy          52845959                       # Layer occupancy (ticks)
system.tol2bus.respLayer1.utilization             4.1                       # Layer utilization (%)
system.tol2bus.respLayer2.occupancy           3251631                       # Layer occupancy (ticks)
system.tol2bus.respLayer2.utilization             0.3                       # Layer utilization (%)
system.tol2bus.respLayer3.occupancy           3997682                       # Layer occupancy (ticks)
system.tol2bus.respLayer3.utilization             0.3                       # Layer utilization (%)
system.tol2bus.respLayer4.occupancy           3477772                       # Layer occupancy (ticks)
system.tol2bus.respLayer4.utilization             0.3                       # Layer utilization (%)
system.tol2bus.respLayer5.occupancy           4713539                       # Layer occupancy (ticks)
system.tol2bus.respLayer5.utilization             0.4                       # Layer utilization (%)
system.tol2bus.respLayer6.occupancy           3521861                       # Layer occupancy (ticks)
system.tol2bus.respLayer6.utilization             0.3                       # Layer utilization (%)
system.tol2bus.respLayer7.occupancy           4791592                       # Layer occupancy (ticks)
system.tol2bus.respLayer7.utilization             0.4                       # Layer utilization (%)
system.tol2bus.respLayer8.occupancy           3364174                       # Layer occupancy (ticks)
system.tol2bus.respLayer8.utilization             0.3                       # Layer utilization (%)
system.tol2bus.respLayer9.occupancy           4372792                       # Layer occupancy (ticks)
system.tol2bus.respLayer9.utilization             0.3                       # Layer utilization (%)
system.tol2bus.respLayer10.occupancy          3825506                       # Layer occupancy (ticks)
system.tol2bus.respLayer10.utilization            0.3                       # Layer utilization (%)
system.tol2bus.respLayer11.occupancy          5704449                       # Layer occupancy (ticks)
system.tol2bus.respLayer11.utilization            0.4                       # Layer utilization (%)
system.tol2bus.respLayer12.occupancy          2573905                       # Layer occupancy (ticks)
system.tol2bus.respLayer12.utilization            0.2                       # Layer utilization (%)
system.tol2bus.respLayer13.occupancy          2273874                       # Layer occupancy (ticks)
system.tol2bus.respLayer13.utilization            0.2                       # Layer utilization (%)
system.tol2bus.respLayer14.occupancy          2790576                       # Layer occupancy (ticks)
system.tol2bus.respLayer14.utilization            0.2                       # Layer utilization (%)
system.tol2bus.respLayer15.occupancy          3510478                       # Layer occupancy (ticks)
system.tol2bus.respLayer15.utilization            0.3                       # Layer utilization (%)
system.tol2bus.respLayer16.occupancy          1986556                       # Layer occupancy (ticks)
system.tol2bus.respLayer16.utilization            0.2                       # Layer utilization (%)
system.tol2bus.respLayer17.occupancy          1804496                       # Layer occupancy (ticks)
system.tol2bus.respLayer17.utilization            0.1                       # Layer utilization (%)
system.tol2bus.respLayer18.occupancy          2344781                       # Layer occupancy (ticks)
system.tol2bus.respLayer18.utilization            0.2                       # Layer utilization (%)
system.tol2bus.respLayer19.occupancy          2555428                       # Layer occupancy (ticks)
system.tol2bus.respLayer19.utilization            0.2                       # Layer utilization (%)
system.tol2bus.respLayer20.occupancy          3268073                       # Layer occupancy (ticks)
system.tol2bus.respLayer20.utilization            0.3                       # Layer utilization (%)
system.tol2bus.respLayer21.occupancy          3131403                       # Layer occupancy (ticks)
system.tol2bus.respLayer21.utilization            0.2                       # Layer utilization (%)
system.tol2bus.respLayer22.occupancy          3378748                       # Layer occupancy (ticks)
system.tol2bus.respLayer22.utilization            0.3                       # Layer utilization (%)
system.tol2bus.respLayer23.occupancy          4937646                       # Layer occupancy (ticks)
system.tol2bus.respLayer23.utilization            0.4                       # Layer utilization (%)
system.tol2bus.respLayer24.occupancy          4011956                       # Layer occupancy (ticks)
system.tol2bus.respLayer24.utilization            0.3                       # Layer utilization (%)
system.tol2bus.respLayer25.occupancy          5788714                       # Layer occupancy (ticks)
system.tol2bus.respLayer25.utilization            0.4                       # Layer utilization (%)
system.tol2bus.respLayer26.occupancy          1661670                       # Layer occupancy (ticks)
system.tol2bus.respLayer26.utilization            0.1                       # Layer utilization (%)
system.tol2bus.respLayer27.occupancy          1749573                       # Layer occupancy (ticks)
system.tol2bus.respLayer27.utilization            0.1                       # Layer utilization (%)
system.tol2bus.respLayer28.occupancy          1540356                       # Layer occupancy (ticks)
system.tol2bus.respLayer28.utilization            0.1                       # Layer utilization (%)
system.tol2bus.respLayer29.occupancy          1732546                       # Layer occupancy (ticks)
system.tol2bus.respLayer29.utilization            0.1                       # Layer utilization (%)
system.tol2bus.respLayer30.occupancy          1834604                       # Layer occupancy (ticks)
system.tol2bus.respLayer30.utilization            0.1                       # Layer utilization (%)
system.tol2bus.respLayer31.occupancy          1779014                       # Layer occupancy (ticks)
system.tol2bus.respLayer31.utilization            0.1                       # Layer utilization (%)

---------- End Simulation Statistics   ----------
