
---------- Begin Simulation Statistics ----------
sim_seconds                                  0.001267                       # Number of seconds simulated
sim_ticks                                  1266529095                       # Number of ticks simulated
final_tick                                 1266529095                       # Number of ticks from beginning of simulation (restored from checkpoints and never reset)
sim_freq                                 1000000000000                       # Frequency of simulated ticks
host_inst_rate                                 221140                       # Simulator instruction rate (inst/s)
host_op_rate                                   221139                       # Simulator op (including micro ops) rate (op/s)
host_tick_rate                              132273102                       # Simulator tick rate (ticks/s)
host_mem_usage                                 694732                       # Number of bytes of host memory used
host_seconds                                     9.58                       # Real time elapsed on the host
sim_insts                                     2117429                       # Number of instructions simulated
sim_ops                                       2117429                       # Number of ops (including micro ops) simulated
system.voltage_domain.voltage                       1                       # Voltage in Volts
system.clk_domain.clock                          1000                       # Clock period in ticks
system.mem_ctrls.bytes_read::cpu00.inst        120256                       # Number of bytes read from this memory
system.mem_ctrls.bytes_read::cpu00.data        376576                       # Number of bytes read from this memory
system.mem_ctrls.bytes_read::cpu01.inst         12224                       # Number of bytes read from this memory
system.mem_ctrls.bytes_read::cpu01.data          5888                       # Number of bytes read from this memory
system.mem_ctrls.bytes_read::cpu02.inst          4224                       # Number of bytes read from this memory
system.mem_ctrls.bytes_read::cpu02.data          5248                       # Number of bytes read from this memory
system.mem_ctrls.bytes_read::cpu03.inst           640                       # Number of bytes read from this memory
system.mem_ctrls.bytes_read::cpu03.data          5504                       # Number of bytes read from this memory
system.mem_ctrls.bytes_read::cpu04.inst          1920                       # Number of bytes read from this memory
system.mem_ctrls.bytes_read::cpu04.data          5696                       # Number of bytes read from this memory
system.mem_ctrls.bytes_read::cpu05.inst           256                       # Number of bytes read from this memory
system.mem_ctrls.bytes_read::cpu05.data          4864                       # Number of bytes read from this memory
system.mem_ctrls.bytes_read::cpu06.inst           768                       # Number of bytes read from this memory
system.mem_ctrls.bytes_read::cpu06.data          5504                       # Number of bytes read from this memory
system.mem_ctrls.bytes_read::cpu07.inst           704                       # Number of bytes read from this memory
system.mem_ctrls.bytes_read::cpu07.data          5440                       # Number of bytes read from this memory
system.mem_ctrls.bytes_read::cpu08.inst           640                       # Number of bytes read from this memory
system.mem_ctrls.bytes_read::cpu08.data          5632                       # Number of bytes read from this memory
system.mem_ctrls.bytes_read::cpu09.inst           832                       # Number of bytes read from this memory
system.mem_ctrls.bytes_read::cpu09.data          4928                       # Number of bytes read from this memory
system.mem_ctrls.bytes_read::cpu10.inst           320                       # Number of bytes read from this memory
system.mem_ctrls.bytes_read::cpu10.data          4672                       # Number of bytes read from this memory
system.mem_ctrls.bytes_read::cpu11.inst           384                       # Number of bytes read from this memory
system.mem_ctrls.bytes_read::cpu11.data          4544                       # Number of bytes read from this memory
system.mem_ctrls.bytes_read::cpu12.inst           192                       # Number of bytes read from this memory
system.mem_ctrls.bytes_read::cpu12.data          4544                       # Number of bytes read from this memory
system.mem_ctrls.bytes_read::cpu13.inst           768                       # Number of bytes read from this memory
system.mem_ctrls.bytes_read::cpu13.data          4480                       # Number of bytes read from this memory
system.mem_ctrls.bytes_read::cpu14.inst           512                       # Number of bytes read from this memory
system.mem_ctrls.bytes_read::cpu14.data          4352                       # Number of bytes read from this memory
system.mem_ctrls.bytes_read::cpu15.inst          3968                       # Number of bytes read from this memory
system.mem_ctrls.bytes_read::cpu15.data          5504                       # Number of bytes read from this memory
system.mem_ctrls.bytes_read::total             601984                       # Number of bytes read from this memory
system.mem_ctrls.bytes_inst_read::cpu00.inst       120256                       # Number of instructions bytes read from this memory
system.mem_ctrls.bytes_inst_read::cpu01.inst        12224                       # Number of instructions bytes read from this memory
system.mem_ctrls.bytes_inst_read::cpu02.inst         4224                       # Number of instructions bytes read from this memory
system.mem_ctrls.bytes_inst_read::cpu03.inst          640                       # Number of instructions bytes read from this memory
system.mem_ctrls.bytes_inst_read::cpu04.inst         1920                       # Number of instructions bytes read from this memory
system.mem_ctrls.bytes_inst_read::cpu05.inst          256                       # Number of instructions bytes read from this memory
system.mem_ctrls.bytes_inst_read::cpu06.inst          768                       # Number of instructions bytes read from this memory
system.mem_ctrls.bytes_inst_read::cpu07.inst          704                       # Number of instructions bytes read from this memory
system.mem_ctrls.bytes_inst_read::cpu08.inst          640                       # Number of instructions bytes read from this memory
system.mem_ctrls.bytes_inst_read::cpu09.inst          832                       # Number of instructions bytes read from this memory
system.mem_ctrls.bytes_inst_read::cpu10.inst          320                       # Number of instructions bytes read from this memory
system.mem_ctrls.bytes_inst_read::cpu11.inst          384                       # Number of instructions bytes read from this memory
system.mem_ctrls.bytes_inst_read::cpu12.inst          192                       # Number of instructions bytes read from this memory
system.mem_ctrls.bytes_inst_read::cpu13.inst          768                       # Number of instructions bytes read from this memory
system.mem_ctrls.bytes_inst_read::cpu14.inst          512                       # Number of instructions bytes read from this memory
system.mem_ctrls.bytes_inst_read::cpu15.inst         3968                       # Number of instructions bytes read from this memory
system.mem_ctrls.bytes_inst_read::total        148608                       # Number of instructions bytes read from this memory
system.mem_ctrls.bytes_written::writebacks          768                       # Number of bytes written to this memory
system.mem_ctrls.bytes_written::total             768                       # Number of bytes written to this memory
system.mem_ctrls.num_reads::cpu00.inst           1879                       # Number of read requests responded to by this memory
system.mem_ctrls.num_reads::cpu00.data           5884                       # Number of read requests responded to by this memory
system.mem_ctrls.num_reads::cpu01.inst            191                       # Number of read requests responded to by this memory
system.mem_ctrls.num_reads::cpu01.data             92                       # Number of read requests responded to by this memory
system.mem_ctrls.num_reads::cpu02.inst             66                       # Number of read requests responded to by this memory
system.mem_ctrls.num_reads::cpu02.data             82                       # Number of read requests responded to by this memory
system.mem_ctrls.num_reads::cpu03.inst             10                       # Number of read requests responded to by this memory
system.mem_ctrls.num_reads::cpu03.data             86                       # Number of read requests responded to by this memory
system.mem_ctrls.num_reads::cpu04.inst             30                       # Number of read requests responded to by this memory
system.mem_ctrls.num_reads::cpu04.data             89                       # Number of read requests responded to by this memory
system.mem_ctrls.num_reads::cpu05.inst              4                       # Number of read requests responded to by this memory
system.mem_ctrls.num_reads::cpu05.data             76                       # Number of read requests responded to by this memory
system.mem_ctrls.num_reads::cpu06.inst             12                       # Number of read requests responded to by this memory
system.mem_ctrls.num_reads::cpu06.data             86                       # Number of read requests responded to by this memory
system.mem_ctrls.num_reads::cpu07.inst             11                       # Number of read requests responded to by this memory
system.mem_ctrls.num_reads::cpu07.data             85                       # Number of read requests responded to by this memory
system.mem_ctrls.num_reads::cpu08.inst             10                       # Number of read requests responded to by this memory
system.mem_ctrls.num_reads::cpu08.data             88                       # Number of read requests responded to by this memory
system.mem_ctrls.num_reads::cpu09.inst             13                       # Number of read requests responded to by this memory
system.mem_ctrls.num_reads::cpu09.data             77                       # Number of read requests responded to by this memory
system.mem_ctrls.num_reads::cpu10.inst              5                       # Number of read requests responded to by this memory
system.mem_ctrls.num_reads::cpu10.data             73                       # Number of read requests responded to by this memory
system.mem_ctrls.num_reads::cpu11.inst              6                       # Number of read requests responded to by this memory
system.mem_ctrls.num_reads::cpu11.data             71                       # Number of read requests responded to by this memory
system.mem_ctrls.num_reads::cpu12.inst              3                       # Number of read requests responded to by this memory
system.mem_ctrls.num_reads::cpu12.data             71                       # Number of read requests responded to by this memory
system.mem_ctrls.num_reads::cpu13.inst             12                       # Number of read requests responded to by this memory
system.mem_ctrls.num_reads::cpu13.data             70                       # Number of read requests responded to by this memory
system.mem_ctrls.num_reads::cpu14.inst              8                       # Number of read requests responded to by this memory
system.mem_ctrls.num_reads::cpu14.data             68                       # Number of read requests responded to by this memory
system.mem_ctrls.num_reads::cpu15.inst             62                       # Number of read requests responded to by this memory
system.mem_ctrls.num_reads::cpu15.data             86                       # Number of read requests responded to by this memory
system.mem_ctrls.num_reads::total                9406                       # Number of read requests responded to by this memory
system.mem_ctrls.num_writes::writebacks            12                       # Number of write requests responded to by this memory
system.mem_ctrls.num_writes::total                 12                       # Number of write requests responded to by this memory
system.mem_ctrls.bw_read::cpu00.inst         94949260                       # Total read bandwidth from this memory (bytes/s)
system.mem_ctrls.bw_read::cpu00.data        297329135                       # Total read bandwidth from this memory (bytes/s)
system.mem_ctrls.bw_read::cpu01.inst          9651575                       # Total read bandwidth from this memory (bytes/s)
system.mem_ctrls.bw_read::cpu01.data          4648926                       # Total read bandwidth from this memory (bytes/s)
system.mem_ctrls.bw_read::cpu02.inst          3335099                       # Total read bandwidth from this memory (bytes/s)
system.mem_ctrls.bw_read::cpu02.data          4143608                       # Total read bandwidth from this memory (bytes/s)
system.mem_ctrls.bw_read::cpu03.inst           505318                       # Total read bandwidth from this memory (bytes/s)
system.mem_ctrls.bw_read::cpu03.data          4345735                       # Total read bandwidth from this memory (bytes/s)
system.mem_ctrls.bw_read::cpu04.inst          1515954                       # Total read bandwidth from this memory (bytes/s)
system.mem_ctrls.bw_read::cpu04.data          4497331                       # Total read bandwidth from this memory (bytes/s)
system.mem_ctrls.bw_read::cpu05.inst           202127                       # Total read bandwidth from this memory (bytes/s)
system.mem_ctrls.bw_read::cpu05.data          3840417                       # Total read bandwidth from this memory (bytes/s)
system.mem_ctrls.bw_read::cpu06.inst           606382                       # Total read bandwidth from this memory (bytes/s)
system.mem_ctrls.bw_read::cpu06.data          4345735                       # Total read bandwidth from this memory (bytes/s)
system.mem_ctrls.bw_read::cpu07.inst           555850                       # Total read bandwidth from this memory (bytes/s)
system.mem_ctrls.bw_read::cpu07.data          4295203                       # Total read bandwidth from this memory (bytes/s)
system.mem_ctrls.bw_read::cpu08.inst           505318                       # Total read bandwidth from this memory (bytes/s)
system.mem_ctrls.bw_read::cpu08.data          4446799                       # Total read bandwidth from this memory (bytes/s)
system.mem_ctrls.bw_read::cpu09.inst           656913                       # Total read bandwidth from this memory (bytes/s)
system.mem_ctrls.bw_read::cpu09.data          3890949                       # Total read bandwidth from this memory (bytes/s)
system.mem_ctrls.bw_read::cpu10.inst           252659                       # Total read bandwidth from this memory (bytes/s)
system.mem_ctrls.bw_read::cpu10.data          3688822                       # Total read bandwidth from this memory (bytes/s)
system.mem_ctrls.bw_read::cpu11.inst           303191                       # Total read bandwidth from this memory (bytes/s)
system.mem_ctrls.bw_read::cpu11.data          3587758                       # Total read bandwidth from this memory (bytes/s)
system.mem_ctrls.bw_read::cpu12.inst           151595                       # Total read bandwidth from this memory (bytes/s)
system.mem_ctrls.bw_read::cpu12.data          3587758                       # Total read bandwidth from this memory (bytes/s)
system.mem_ctrls.bw_read::cpu13.inst           606382                       # Total read bandwidth from this memory (bytes/s)
system.mem_ctrls.bw_read::cpu13.data          3537226                       # Total read bandwidth from this memory (bytes/s)
system.mem_ctrls.bw_read::cpu14.inst           404254                       # Total read bandwidth from this memory (bytes/s)
system.mem_ctrls.bw_read::cpu14.data          3436163                       # Total read bandwidth from this memory (bytes/s)
system.mem_ctrls.bw_read::cpu15.inst          3132972                       # Total read bandwidth from this memory (bytes/s)
system.mem_ctrls.bw_read::cpu15.data          4345735                       # Total read bandwidth from this memory (bytes/s)
system.mem_ctrls.bw_read::total             475302149                       # Total read bandwidth from this memory (bytes/s)
system.mem_ctrls.bw_inst_read::cpu00.inst     94949260                       # Instruction read bandwidth from this memory (bytes/s)
system.mem_ctrls.bw_inst_read::cpu01.inst      9651575                       # Instruction read bandwidth from this memory (bytes/s)
system.mem_ctrls.bw_inst_read::cpu02.inst      3335099                       # Instruction read bandwidth from this memory (bytes/s)
system.mem_ctrls.bw_inst_read::cpu03.inst       505318                       # Instruction read bandwidth from this memory (bytes/s)
system.mem_ctrls.bw_inst_read::cpu04.inst      1515954                       # Instruction read bandwidth from this memory (bytes/s)
system.mem_ctrls.bw_inst_read::cpu05.inst       202127                       # Instruction read bandwidth from this memory (bytes/s)
system.mem_ctrls.bw_inst_read::cpu06.inst       606382                       # Instruction read bandwidth from this memory (bytes/s)
system.mem_ctrls.bw_inst_read::cpu07.inst       555850                       # Instruction read bandwidth from this memory (bytes/s)
system.mem_ctrls.bw_inst_read::cpu08.inst       505318                       # Instruction read bandwidth from this memory (bytes/s)
system.mem_ctrls.bw_inst_read::cpu09.inst       656913                       # Instruction read bandwidth from this memory (bytes/s)
system.mem_ctrls.bw_inst_read::cpu10.inst       252659                       # Instruction read bandwidth from this memory (bytes/s)
system.mem_ctrls.bw_inst_read::cpu11.inst       303191                       # Instruction read bandwidth from this memory (bytes/s)
system.mem_ctrls.bw_inst_read::cpu12.inst       151595                       # Instruction read bandwidth from this memory (bytes/s)
system.mem_ctrls.bw_inst_read::cpu13.inst       606382                       # Instruction read bandwidth from this memory (bytes/s)
system.mem_ctrls.bw_inst_read::cpu14.inst       404254                       # Instruction read bandwidth from this memory (bytes/s)
system.mem_ctrls.bw_inst_read::cpu15.inst      3132972                       # Instruction read bandwidth from this memory (bytes/s)
system.mem_ctrls.bw_inst_read::total        117334849                       # Instruction read bandwidth from this memory (bytes/s)
system.mem_ctrls.bw_write::writebacks          606382                       # Write bandwidth from this memory (bytes/s)
system.mem_ctrls.bw_write::total               606382                       # Write bandwidth from this memory (bytes/s)
system.mem_ctrls.bw_total::writebacks          606382                       # Total bandwidth to/from this memory (bytes/s)
system.mem_ctrls.bw_total::cpu00.inst        94949260                       # Total bandwidth to/from this memory (bytes/s)
system.mem_ctrls.bw_total::cpu00.data       297329135                       # Total bandwidth to/from this memory (bytes/s)
system.mem_ctrls.bw_total::cpu01.inst         9651575                       # Total bandwidth to/from this memory (bytes/s)
system.mem_ctrls.bw_total::cpu01.data         4648926                       # Total bandwidth to/from this memory (bytes/s)
system.mem_ctrls.bw_total::cpu02.inst         3335099                       # Total bandwidth to/from this memory (bytes/s)
system.mem_ctrls.bw_total::cpu02.data         4143608                       # Total bandwidth to/from this memory (bytes/s)
system.mem_ctrls.bw_total::cpu03.inst          505318                       # Total bandwidth to/from this memory (bytes/s)
system.mem_ctrls.bw_total::cpu03.data         4345735                       # Total bandwidth to/from this memory (bytes/s)
system.mem_ctrls.bw_total::cpu04.inst         1515954                       # Total bandwidth to/from this memory (bytes/s)
system.mem_ctrls.bw_total::cpu04.data         4497331                       # Total bandwidth to/from this memory (bytes/s)
system.mem_ctrls.bw_total::cpu05.inst          202127                       # Total bandwidth to/from this memory (bytes/s)
system.mem_ctrls.bw_total::cpu05.data         3840417                       # Total bandwidth to/from this memory (bytes/s)
system.mem_ctrls.bw_total::cpu06.inst          606382                       # Total bandwidth to/from this memory (bytes/s)
system.mem_ctrls.bw_total::cpu06.data         4345735                       # Total bandwidth to/from this memory (bytes/s)
system.mem_ctrls.bw_total::cpu07.inst          555850                       # Total bandwidth to/from this memory (bytes/s)
system.mem_ctrls.bw_total::cpu07.data         4295203                       # Total bandwidth to/from this memory (bytes/s)
system.mem_ctrls.bw_total::cpu08.inst          505318                       # Total bandwidth to/from this memory (bytes/s)
system.mem_ctrls.bw_total::cpu08.data         4446799                       # Total bandwidth to/from this memory (bytes/s)
system.mem_ctrls.bw_total::cpu09.inst          656913                       # Total bandwidth to/from this memory (bytes/s)
system.mem_ctrls.bw_total::cpu09.data         3890949                       # Total bandwidth to/from this memory (bytes/s)
system.mem_ctrls.bw_total::cpu10.inst          252659                       # Total bandwidth to/from this memory (bytes/s)
system.mem_ctrls.bw_total::cpu10.data         3688822                       # Total bandwidth to/from this memory (bytes/s)
system.mem_ctrls.bw_total::cpu11.inst          303191                       # Total bandwidth to/from this memory (bytes/s)
system.mem_ctrls.bw_total::cpu11.data         3587758                       # Total bandwidth to/from this memory (bytes/s)
system.mem_ctrls.bw_total::cpu12.inst          151595                       # Total bandwidth to/from this memory (bytes/s)
system.mem_ctrls.bw_total::cpu12.data         3587758                       # Total bandwidth to/from this memory (bytes/s)
system.mem_ctrls.bw_total::cpu13.inst          606382                       # Total bandwidth to/from this memory (bytes/s)
system.mem_ctrls.bw_total::cpu13.data         3537226                       # Total bandwidth to/from this memory (bytes/s)
system.mem_ctrls.bw_total::cpu14.inst          404254                       # Total bandwidth to/from this memory (bytes/s)
system.mem_ctrls.bw_total::cpu14.data         3436163                       # Total bandwidth to/from this memory (bytes/s)
system.mem_ctrls.bw_total::cpu15.inst         3132972                       # Total bandwidth to/from this memory (bytes/s)
system.mem_ctrls.bw_total::cpu15.data         4345735                       # Total bandwidth to/from this memory (bytes/s)
system.mem_ctrls.bw_total::total            475908530                       # Total bandwidth to/from this memory (bytes/s)
system.cpu00.branchPred.lookups                133383                       # Number of BP lookups
system.cpu00.branchPred.condPredicted           74545                       # Number of conditional branches predicted
system.cpu00.branchPred.condIncorrect            5702                       # Number of conditional branches incorrect
system.cpu00.branchPred.BTBLookups              87889                       # Number of BTB lookups
system.cpu00.branchPred.BTBHits                 66775                       # Number of BTB hits
system.cpu00.branchPred.BTBCorrect                  0                       # Number of correct BTB predictions (this stat may not work properly.
system.cpu00.branchPred.BTBHitPct           75.976516                       # BTB Hit Percentage
system.cpu00.branchPred.usedRAS                 26488                       # Number of times the RAS was used to get a target.
system.cpu00.branchPred.RASInCorrect               96                       # Number of incorrect RAS predictions.
system.cpu00.branchPred.indirectLookups          3675                       # Number of indirect predictor lookups.
system.cpu00.branchPred.indirectHits             2893                       # Number of indirect target hits.
system.cpu00.branchPred.indirectMisses            782                       # Number of indirect misses.
system.cpu00.branchPredindirectMispredicted          255                       # Number of mispredicted indirect branches.
system.cpu_voltage_domain.voltage                   1                       # Voltage in Volts
system.cpu_clk_domain.clock                      1161                       # Clock period in ticks
system.cpu00.dtb.fetch_hits                         0                       # ITB hits
system.cpu00.dtb.fetch_misses                       0                       # ITB misses
system.cpu00.dtb.fetch_acv                          0                       # ITB acv
system.cpu00.dtb.fetch_accesses                     0                       # ITB accesses
system.cpu00.dtb.read_hits                     182469                       # DTB read hits
system.cpu00.dtb.read_misses                      615                       # DTB read misses
system.cpu00.dtb.read_acv                           0                       # DTB read access violations
system.cpu00.dtb.read_accesses                 183084                       # DTB read accesses
system.cpu00.dtb.write_hits                    128001                       # DTB write hits
system.cpu00.dtb.write_misses                    1028                       # DTB write misses
system.cpu00.dtb.write_acv                          0                       # DTB write access violations
system.cpu00.dtb.write_accesses                129029                       # DTB write accesses
system.cpu00.dtb.data_hits                     310470                       # DTB hits
system.cpu00.dtb.data_misses                     1643                       # DTB misses
system.cpu00.dtb.data_acv                           0                       # DTB access violations
system.cpu00.dtb.data_accesses                 312113                       # DTB accesses
system.cpu00.itb.fetch_hits                    149826                       # ITB hits
system.cpu00.itb.fetch_misses                     153                       # ITB misses
system.cpu00.itb.fetch_acv                          0                       # ITB acv
system.cpu00.itb.fetch_accesses                149979                       # ITB accesses
system.cpu00.itb.read_hits                          0                       # DTB read hits
system.cpu00.itb.read_misses                        0                       # DTB read misses
system.cpu00.itb.read_acv                           0                       # DTB read access violations
system.cpu00.itb.read_accesses                      0                       # DTB read accesses
system.cpu00.itb.write_hits                         0                       # DTB write hits
system.cpu00.itb.write_misses                       0                       # DTB write misses
system.cpu00.itb.write_acv                          0                       # DTB write access violations
system.cpu00.itb.write_accesses                     0                       # DTB write accesses
system.cpu00.itb.data_hits                          0                       # DTB hits
system.cpu00.itb.data_misses                        0                       # DTB misses
system.cpu00.itb.data_acv                           0                       # DTB access violations
system.cpu00.itb.data_accesses                      0                       # DTB accesses
system.cpu00.workload.num_syscalls               1999                       # Number of system calls
system.cpu00.numCycles                        1015911                       # number of cpu cycles simulated
system.cpu00.numWorkItemsStarted                    0                       # number of work items this cpu started
system.cpu00.numWorkItemsCompleted                  0                       # number of work items this cpu completed
system.cpu00.fetch.icacheStallCycles            76873                       # Number of cycles fetch is stalled on an Icache miss
system.cpu00.fetch.Insts                      1193735                       # Number of instructions fetch has processed
system.cpu00.fetch.Branches                    133383                       # Number of branches that fetch encountered
system.cpu00.fetch.predictedBranches            96156                       # Number of branches that fetch has predicted taken
system.cpu00.fetch.Cycles                      728201                       # Number of cycles fetch has run and was not squashing or blocked
system.cpu00.fetch.SquashCycles                 12778                       # Number of cycles fetch has spent squashing
system.cpu00.fetch.MiscStallCycles                432                       # Number of cycles fetch has spent waiting on interrupts, or bad addresses, or out of MSHRs
system.cpu00.fetch.PendingTrapStallCycles         6122                       # Number of stall cycles due to pending traps
system.cpu00.fetch.IcacheWaitRetryStallCycles          686                       # Number of stall cycles due to full MSHR
system.cpu00.fetch.CacheLines                  149826                       # Number of cache lines fetched
system.cpu00.fetch.IcacheSquashes                2599                       # Number of outstanding Icache misses that were squashed
system.cpu00.fetch.rateDist::samples           818703                       # Number of instructions fetched each cycle (Total)
system.cpu00.fetch.rateDist::mean            1.458081                       # Number of instructions fetched each cycle (Total)
system.cpu00.fetch.rateDist::stdev           2.719146                       # Number of instructions fetched each cycle (Total)
system.cpu00.fetch.rateDist::underflows             0      0.00%      0.00% # Number of instructions fetched each cycle (Total)
system.cpu00.fetch.rateDist::0                 599100     73.18%     73.18% # Number of instructions fetched each cycle (Total)
system.cpu00.fetch.rateDist::1                  16388      2.00%     75.18% # Number of instructions fetched each cycle (Total)
system.cpu00.fetch.rateDist::2                  18641      2.28%     77.46% # Number of instructions fetched each cycle (Total)
system.cpu00.fetch.rateDist::3                  17490      2.14%     79.59% # Number of instructions fetched each cycle (Total)
system.cpu00.fetch.rateDist::4                  37801      4.62%     84.21% # Number of instructions fetched each cycle (Total)
system.cpu00.fetch.rateDist::5                  16154      1.97%     86.18% # Number of instructions fetched each cycle (Total)
system.cpu00.fetch.rateDist::6                  18863      2.30%     88.49% # Number of instructions fetched each cycle (Total)
system.cpu00.fetch.rateDist::7                  11685      1.43%     89.91% # Number of instructions fetched each cycle (Total)
system.cpu00.fetch.rateDist::8                  82581     10.09%    100.00% # Number of instructions fetched each cycle (Total)
system.cpu00.fetch.rateDist::overflows              0      0.00%    100.00% # Number of instructions fetched each cycle (Total)
system.cpu00.fetch.rateDist::min_value              0                       # Number of instructions fetched each cycle (Total)
system.cpu00.fetch.rateDist::max_value              8                       # Number of instructions fetched each cycle (Total)
system.cpu00.fetch.rateDist::total             818703                       # Number of instructions fetched each cycle (Total)
system.cpu00.fetch.branchRate                0.131294                       # Number of branch fetches per cycle
system.cpu00.fetch.rate                      1.175039                       # Number of inst fetches per cycle
system.cpu00.decode.IdleCycles                  85764                       # Number of cycles decode is idle
system.cpu00.decode.BlockedCycles              565621                       # Number of cycles decode is blocked
system.cpu00.decode.RunCycles                  128052                       # Number of cycles decode is running
system.cpu00.decode.UnblockCycles               34619                       # Number of cycles decode is unblocking
system.cpu00.decode.SquashCycles                 4647                       # Number of cycles decode is squashing
system.cpu00.decode.BranchResolved              26434                       # Number of times decode resolved a branch
system.cpu00.decode.BranchMispred                1793                       # Number of times decode detected a branch misprediction
system.cpu00.decode.DecodedInsts              1125849                       # Number of instructions handled by decode
system.cpu00.decode.SquashedInsts                7292                       # Number of squashed instructions handled by decode
system.cpu00.rename.SquashCycles                 4647                       # Number of cycles rename is squashing
system.cpu00.rename.IdleCycles                 101959                       # Number of cycles rename is idle
system.cpu00.rename.BlockCycles                 97283                       # Number of cycles rename is blocking
system.cpu00.rename.serializeStallCycles       220006                       # count of cycles rename stalled for serializing inst
system.cpu00.rename.RunCycles                  146427                       # Number of cycles rename is running
system.cpu00.rename.UnblockCycles              248381                       # Number of cycles rename is unblocking
system.cpu00.rename.RenamedInsts              1105961                       # Number of instructions processed by rename
system.cpu00.rename.ROBFullEvents                3014                       # Number of times rename has blocked due to ROB full
system.cpu00.rename.IQFullEvents                24399                       # Number of times rename has blocked due to IQ full
system.cpu00.rename.LQFullEvents                 1682                       # Number of times rename has blocked due to LQ full
system.cpu00.rename.SQFullEvents               211692                       # Number of times rename has blocked due to SQ full
system.cpu00.rename.RenamedOperands            758384                       # Number of destination operands rename has renamed
system.cpu00.rename.RenameLookups             1369894                       # Number of register rename lookups that rename has made
system.cpu00.rename.int_rename_lookups        1211973                       # Number of integer rename lookups
system.cpu00.rename.fp_rename_lookups          155634                       # Number of floating rename lookups
system.cpu00.rename.CommittedMaps              668746                       # Number of HB maps that are committed
system.cpu00.rename.UndoneMaps                  89638                       # Number of HB maps that are undone due to squashing
system.cpu00.rename.serializingInsts             4089                       # count of serializing insts renamed
system.cpu00.rename.tempSerializingInsts         1722                       # count of temporary serializing insts renamed
system.cpu00.rename.skidInsts                  154317                       # count of insts added to the skid buffer
system.cpu00.memDep0.insertedLoads             179633                       # Number of loads inserted to the mem dependence unit.
system.cpu00.memDep0.insertedStores            135510                       # Number of stores inserted to the mem dependence unit.
system.cpu00.memDep0.conflictingLoads           32067                       # Number of conflicting loads.
system.cpu00.memDep0.conflictingStores          12436                       # Number of conflicting stores.
system.cpu00.iq.iqInstsAdded                   969503                       # Number of instructions added to the IQ (excludes non-spec)
system.cpu00.iq.iqNonSpecInstsAdded              2819                       # Number of non-speculative instructions added to the IQ
system.cpu00.iq.iqInstsIssued                  953595                       # Number of instructions issued
system.cpu00.iq.iqSquashedInstsIssued            1797                       # Number of squashed instructions issued
system.cpu00.iq.iqSquashedInstsExamined        102559                       # Number of squashed instructions iterated over during squash; mainly for profiling
system.cpu00.iq.iqSquashedOperandsExamined        51980                       # Number of squashed operands that are examined and possibly removed from graph
system.cpu00.iq.iqSquashedNonSpecRemoved          451                       # Number of squashed non-spec instructions that were removed
system.cpu00.iq.issued_per_cycle::samples       818703                       # Number of insts issued each cycle
system.cpu00.iq.issued_per_cycle::mean       1.164763                       # Number of insts issued each cycle
system.cpu00.iq.issued_per_cycle::stdev      1.926245                       # Number of insts issued each cycle
system.cpu00.iq.issued_per_cycle::underflows            0      0.00%      0.00% # Number of insts issued each cycle
system.cpu00.iq.issued_per_cycle::0            518281     63.31%     63.31% # Number of insts issued each cycle
system.cpu00.iq.issued_per_cycle::1             74780      9.13%     72.44% # Number of insts issued each cycle
system.cpu00.iq.issued_per_cycle::2             62288      7.61%     80.05% # Number of insts issued each cycle
system.cpu00.iq.issued_per_cycle::3             45295      5.53%     85.58% # Number of insts issued each cycle
system.cpu00.iq.issued_per_cycle::4             43798      5.35%     90.93% # Number of insts issued each cycle
system.cpu00.iq.issued_per_cycle::5             29160      3.56%     94.49% # Number of insts issued each cycle
system.cpu00.iq.issued_per_cycle::6             26156      3.19%     97.69% # Number of insts issued each cycle
system.cpu00.iq.issued_per_cycle::7             11134      1.36%     99.05% # Number of insts issued each cycle
system.cpu00.iq.issued_per_cycle::8              7811      0.95%    100.00% # Number of insts issued each cycle
system.cpu00.iq.issued_per_cycle::overflows            0      0.00%    100.00% # Number of insts issued each cycle
system.cpu00.iq.issued_per_cycle::min_value            0                       # Number of insts issued each cycle
system.cpu00.iq.issued_per_cycle::max_value            8                       # Number of insts issued each cycle
system.cpu00.iq.issued_per_cycle::total        818703                       # Number of insts issued each cycle
system.cpu00.iq.fu_full::No_OpClass                 0      0.00%      0.00% # attempts to use FU when none available
system.cpu00.iq.fu_full::IntAlu                  4804     15.57%     15.57% # attempts to use FU when none available
system.cpu00.iq.fu_full::IntMult                 4097     13.28%     28.85% # attempts to use FU when none available
system.cpu00.iq.fu_full::IntDiv                     0      0.00%     28.85% # attempts to use FU when none available
system.cpu00.iq.fu_full::FloatAdd                  80      0.26%     29.11% # attempts to use FU when none available
system.cpu00.iq.fu_full::FloatCmp                   0      0.00%     29.11% # attempts to use FU when none available
system.cpu00.iq.fu_full::FloatCvt                   0      0.00%     29.11% # attempts to use FU when none available
system.cpu00.iq.fu_full::FloatMult               5984     19.39%     48.50% # attempts to use FU when none available
system.cpu00.iq.fu_full::FloatDiv                   0      0.00%     48.50% # attempts to use FU when none available
system.cpu00.iq.fu_full::FloatSqrt                  0      0.00%     48.50% # attempts to use FU when none available
system.cpu00.iq.fu_full::SimdAdd                    0      0.00%     48.50% # attempts to use FU when none available
system.cpu00.iq.fu_full::SimdAddAcc                 0      0.00%     48.50% # attempts to use FU when none available
system.cpu00.iq.fu_full::SimdAlu                    0      0.00%     48.50% # attempts to use FU when none available
system.cpu00.iq.fu_full::SimdCmp                    0      0.00%     48.50% # attempts to use FU when none available
system.cpu00.iq.fu_full::SimdCvt                    0      0.00%     48.50% # attempts to use FU when none available
system.cpu00.iq.fu_full::SimdMisc                   0      0.00%     48.50% # attempts to use FU when none available
system.cpu00.iq.fu_full::SimdMult                   0      0.00%     48.50% # attempts to use FU when none available
system.cpu00.iq.fu_full::SimdMultAcc                0      0.00%     48.50% # attempts to use FU when none available
system.cpu00.iq.fu_full::SimdShift                  0      0.00%     48.50% # attempts to use FU when none available
system.cpu00.iq.fu_full::SimdShiftAcc               0      0.00%     48.50% # attempts to use FU when none available
system.cpu00.iq.fu_full::SimdSqrt                   0      0.00%     48.50% # attempts to use FU when none available
system.cpu00.iq.fu_full::SimdFloatAdd               0      0.00%     48.50% # attempts to use FU when none available
system.cpu00.iq.fu_full::SimdFloatAlu               0      0.00%     48.50% # attempts to use FU when none available
system.cpu00.iq.fu_full::SimdFloatCmp               0      0.00%     48.50% # attempts to use FU when none available
system.cpu00.iq.fu_full::SimdFloatCvt               0      0.00%     48.50% # attempts to use FU when none available
system.cpu00.iq.fu_full::SimdFloatDiv               0      0.00%     48.50% # attempts to use FU when none available
system.cpu00.iq.fu_full::SimdFloatMisc              0      0.00%     48.50% # attempts to use FU when none available
system.cpu00.iq.fu_full::SimdFloatMult              0      0.00%     48.50% # attempts to use FU when none available
system.cpu00.iq.fu_full::SimdFloatMultAcc            0      0.00%     48.50% # attempts to use FU when none available
system.cpu00.iq.fu_full::SimdFloatSqrt              0      0.00%     48.50% # attempts to use FU when none available
system.cpu00.iq.fu_full::MemRead                 9751     31.60%     80.10% # attempts to use FU when none available
system.cpu00.iq.fu_full::MemWrite                6140     19.90%    100.00% # attempts to use FU when none available
system.cpu00.iq.fu_full::IprAccess                  0      0.00%    100.00% # attempts to use FU when none available
system.cpu00.iq.fu_full::InstPrefetch               0      0.00%    100.00% # attempts to use FU when none available
system.cpu00.iq.FU_type_0::No_OpClass               0      0.00%      0.00% # Type of FU issued
system.cpu00.iq.FU_type_0::IntAlu              551183     57.80%     57.80% # Type of FU issued
system.cpu00.iq.FU_type_0::IntMult              12785      1.34%     59.14% # Type of FU issued
system.cpu00.iq.FU_type_0::IntDiv                   0      0.00%     59.14% # Type of FU issued
system.cpu00.iq.FU_type_0::FloatAdd             35713      3.75%     62.89% # Type of FU issued
system.cpu00.iq.FU_type_0::FloatCmp                 8      0.00%     62.89% # Type of FU issued
system.cpu00.iq.FU_type_0::FloatCvt                 0      0.00%     62.89% # Type of FU issued
system.cpu00.iq.FU_type_0::FloatMult            37101      3.89%     66.78% # Type of FU issued
system.cpu00.iq.FU_type_0::FloatDiv                17      0.00%     66.78% # Type of FU issued
system.cpu00.iq.FU_type_0::FloatSqrt                0      0.00%     66.78% # Type of FU issued
system.cpu00.iq.FU_type_0::SimdAdd                  0      0.00%     66.78% # Type of FU issued
system.cpu00.iq.FU_type_0::SimdAddAcc               0      0.00%     66.78% # Type of FU issued
system.cpu00.iq.FU_type_0::SimdAlu                  0      0.00%     66.78% # Type of FU issued
system.cpu00.iq.FU_type_0::SimdCmp                  0      0.00%     66.78% # Type of FU issued
system.cpu00.iq.FU_type_0::SimdCvt                  0      0.00%     66.78% # Type of FU issued
system.cpu00.iq.FU_type_0::SimdMisc                 0      0.00%     66.78% # Type of FU issued
system.cpu00.iq.FU_type_0::SimdMult                 0      0.00%     66.78% # Type of FU issued
system.cpu00.iq.FU_type_0::SimdMultAcc              0      0.00%     66.78% # Type of FU issued
system.cpu00.iq.FU_type_0::SimdShift                0      0.00%     66.78% # Type of FU issued
system.cpu00.iq.FU_type_0::SimdShiftAcc             0      0.00%     66.78% # Type of FU issued
system.cpu00.iq.FU_type_0::SimdSqrt                 0      0.00%     66.78% # Type of FU issued
system.cpu00.iq.FU_type_0::SimdFloatAdd             0      0.00%     66.78% # Type of FU issued
system.cpu00.iq.FU_type_0::SimdFloatAlu             0      0.00%     66.78% # Type of FU issued
system.cpu00.iq.FU_type_0::SimdFloatCmp             0      0.00%     66.78% # Type of FU issued
system.cpu00.iq.FU_type_0::SimdFloatCvt             0      0.00%     66.78% # Type of FU issued
system.cpu00.iq.FU_type_0::SimdFloatDiv             0      0.00%     66.78% # Type of FU issued
system.cpu00.iq.FU_type_0::SimdFloatMisc            0      0.00%     66.78% # Type of FU issued
system.cpu00.iq.FU_type_0::SimdFloatMult            0      0.00%     66.78% # Type of FU issued
system.cpu00.iq.FU_type_0::SimdFloatMultAcc            0      0.00%     66.78% # Type of FU issued
system.cpu00.iq.FU_type_0::SimdFloatSqrt            0      0.00%     66.78% # Type of FU issued
system.cpu00.iq.FU_type_0::MemRead             186269     19.53%     86.31% # Type of FU issued
system.cpu00.iq.FU_type_0::MemWrite            130519     13.69%    100.00% # Type of FU issued
system.cpu00.iq.FU_type_0::IprAccess                0      0.00%    100.00% # Type of FU issued
system.cpu00.iq.FU_type_0::InstPrefetch             0      0.00%    100.00% # Type of FU issued
system.cpu00.iq.FU_type_0::total               953595                       # Type of FU issued
system.cpu00.iq.rate                         0.938660                       # Inst issue rate
system.cpu00.iq.fu_busy_cnt                     30856                       # FU busy when requested
system.cpu00.iq.fu_busy_rate                 0.032358                       # FU busy rate (busy events/executed inst)
system.cpu00.iq.int_inst_queue_reads          2515084                       # Number of integer instruction queue reads
system.cpu00.iq.int_inst_queue_writes          952134                       # Number of integer instruction queue writes
system.cpu00.iq.int_inst_queue_wakeup_accesses       813965                       # Number of integer instruction queue wakeup accesses
system.cpu00.iq.fp_inst_queue_reads            243462                       # Number of floating instruction queue reads
system.cpu00.iq.fp_inst_queue_writes           123170                       # Number of floating instruction queue writes
system.cpu00.iq.fp_inst_queue_wakeup_accesses       116953                       # Number of floating instruction queue wakeup accesses
system.cpu00.iq.int_alu_accesses               859346                       # Number of integer alu accesses
system.cpu00.iq.fp_alu_accesses                125105                       # Number of floating point alu accesses
system.cpu00.iew.lsq.thread0.forwLoads          21351                       # Number of loads that had data forwarded from stores
system.cpu00.iew.lsq.thread0.invAddrLoads            0                       # Number of loads ignored due to an invalid address
system.cpu00.iew.lsq.thread0.squashedLoads        18689                       # Number of loads squashed
system.cpu00.iew.lsq.thread0.ignoredResponses           96                       # Number of memory responses ignored because the instruction is squashed
system.cpu00.iew.lsq.thread0.memOrderViolation          433                       # Number of memory ordering violations
system.cpu00.iew.lsq.thread0.squashedStores        15995                       # Number of stores squashed
system.cpu00.iew.lsq.thread0.invAddrSwpfs            0                       # Number of software prefetches ignored due to an invalid address
system.cpu00.iew.lsq.thread0.blockedLoads            0                       # Number of blocked loads due to partial load-store forwarding
system.cpu00.iew.lsq.thread0.rescheduledLoads          221                       # Number of loads that were rescheduled
system.cpu00.iew.lsq.thread0.cacheBlocked        11779                       # Number of times an access to memory failed due to the cache being blocked
system.cpu00.iew.iewIdleCycles                      0                       # Number of cycles IEW is idle
system.cpu00.iew.iewSquashCycles                 4647                       # Number of cycles IEW is squashing
system.cpu00.iew.iewBlockCycles                 22467                       # Number of cycles IEW is blocking
system.cpu00.iew.iewUnblockCycles               65254                       # Number of cycles IEW is unblocking
system.cpu00.iew.iewDispatchedInsts           1079898                       # Number of instructions dispatched to IQ
system.cpu00.iew.iewDispSquashedInsts            1376                       # Number of squashed instructions skipped by dispatch
system.cpu00.iew.iewDispLoadInsts              179633                       # Number of dispatched load instructions
system.cpu00.iew.iewDispStoreInsts             135510                       # Number of dispatched store instructions
system.cpu00.iew.iewDispNonSpecInsts             1638                       # Number of dispatched non-speculative instructions
system.cpu00.iew.iewIQFullEvents                  129                       # Number of times the IQ has become full, causing a stall
system.cpu00.iew.iewLSQFullEvents               65048                       # Number of times the LSQ has become full, causing a stall
system.cpu00.iew.memOrderViolationEvents          433                       # Number of memory order violations
system.cpu00.iew.predictedTakenIncorrect         1599                       # Number of branches that were predicted taken incorrectly
system.cpu00.iew.predictedNotTakenIncorrect         3100                       # Number of branches that were predicted not taken incorrectly
system.cpu00.iew.branchMispredicts               4699                       # Number of branch mispredicts detected at execute
system.cpu00.iew.iewExecutedInsts              946206                       # Number of executed instructions
system.cpu00.iew.iewExecLoadInsts              183105                       # Number of load instructions executed
system.cpu00.iew.iewExecSquashedInsts            7389                       # Number of squashed instructions skipped in execute
system.cpu00.iew.exec_swp                           0                       # number of swp insts executed
system.cpu00.iew.exec_nop                      107576                       # number of nop insts executed
system.cpu00.iew.exec_refs                     312142                       # number of memory reference insts executed
system.cpu00.iew.exec_branches                 110303                       # Number of branches executed
system.cpu00.iew.exec_stores                   129037                       # Number of stores executed
system.cpu00.iew.exec_rate                   0.931387                       # Inst execution rate
system.cpu00.iew.wb_sent                       934140                       # cumulative count of insts sent to commit
system.cpu00.iew.wb_count                      930918                       # cumulative count of insts written-back
system.cpu00.iew.wb_producers                  545836                       # num instructions producing a value
system.cpu00.iew.wb_consumers                  778947                       # num instructions consuming a value
system.cpu00.iew.wb_rate                     0.916338                       # insts written-back per cycle
system.cpu00.iew.wb_fanout                   0.700736                       # average fanout of values written-back
system.cpu00.commit.commitSquashedInsts        106745                       # The number of squashed insts skipped by commit
system.cpu00.commit.commitNonSpecStalls          2368                       # The number of times commit has been forced to stall to communicate backwards
system.cpu00.commit.branchMispredicts            3960                       # The number of times a branch was mispredicted
system.cpu00.commit.committed_per_cycle::samples       801925                       # Number of insts commited each cycle
system.cpu00.commit.committed_per_cycle::mean     1.207544                       # Number of insts commited each cycle
system.cpu00.commit.committed_per_cycle::stdev     2.307053                       # Number of insts commited each cycle
system.cpu00.commit.committed_per_cycle::underflows            0      0.00%      0.00% # Number of insts commited each cycle
system.cpu00.commit.committed_per_cycle::0       553525     69.02%     69.02% # Number of insts commited each cycle
system.cpu00.commit.committed_per_cycle::1        52232      6.51%     75.54% # Number of insts commited each cycle
system.cpu00.commit.committed_per_cycle::2        51017      6.36%     81.90% # Number of insts commited each cycle
system.cpu00.commit.committed_per_cycle::3        29984      3.74%     85.64% # Number of insts commited each cycle
system.cpu00.commit.committed_per_cycle::4        34888      4.35%     89.99% # Number of insts commited each cycle
system.cpu00.commit.committed_per_cycle::5         9069      1.13%     91.12% # Number of insts commited each cycle
system.cpu00.commit.committed_per_cycle::6        12784      1.59%     92.71% # Number of insts commited each cycle
system.cpu00.commit.committed_per_cycle::7         4867      0.61%     93.32% # Number of insts commited each cycle
system.cpu00.commit.committed_per_cycle::8        53559      6.68%    100.00% # Number of insts commited each cycle
system.cpu00.commit.committed_per_cycle::overflows            0      0.00%    100.00% # Number of insts commited each cycle
system.cpu00.commit.committed_per_cycle::min_value            0                       # Number of insts commited each cycle
system.cpu00.commit.committed_per_cycle::max_value            8                       # Number of insts commited each cycle
system.cpu00.commit.committed_per_cycle::total       801925                       # Number of insts commited each cycle
system.cpu00.commit.committedInsts             968360                       # Number of instructions committed
system.cpu00.commit.committedOps               968360                       # Number of ops (including micro ops) committed
system.cpu00.commit.swp_count                       0                       # Number of s/w prefetches committed
system.cpu00.commit.refs                       280459                       # Number of memory references committed
system.cpu00.commit.loads                      160944                       # Number of loads committed
system.cpu00.commit.membars                      1032                       # Number of memory barriers committed
system.cpu00.commit.branches                   100079                       # Number of branches committed
system.cpu00.commit.fp_insts                   116058                       # Number of committed floating point instructions.
system.cpu00.commit.int_insts                  791896                       # Number of committed integer instructions.
system.cpu00.commit.function_calls              22213                       # Number of function calls committed.
system.cpu00.commit.op_class_0::No_OpClass        98598     10.18%     10.18% # Class of committed instruction
system.cpu00.commit.op_class_0::IntAlu         503144     51.96%     62.14% # Class of committed instruction
system.cpu00.commit.op_class_0::IntMult         12689      1.31%     63.45% # Class of committed instruction
system.cpu00.commit.op_class_0::IntDiv              0      0.00%     63.45% # Class of committed instruction
system.cpu00.commit.op_class_0::FloatAdd        35480      3.66%     67.11% # Class of committed instruction
system.cpu00.commit.op_class_0::FloatCmp            8      0.00%     67.12% # Class of committed instruction
system.cpu00.commit.op_class_0::FloatCvt            0      0.00%     67.12% # Class of committed instruction
system.cpu00.commit.op_class_0::FloatMult        36935      3.81%     70.93% # Class of committed instruction
system.cpu00.commit.op_class_0::FloatDiv           14      0.00%     70.93% # Class of committed instruction
system.cpu00.commit.op_class_0::FloatSqrt            0      0.00%     70.93% # Class of committed instruction
system.cpu00.commit.op_class_0::SimdAdd             0      0.00%     70.93% # Class of committed instruction
system.cpu00.commit.op_class_0::SimdAddAcc            0      0.00%     70.93% # Class of committed instruction
system.cpu00.commit.op_class_0::SimdAlu             0      0.00%     70.93% # Class of committed instruction
system.cpu00.commit.op_class_0::SimdCmp             0      0.00%     70.93% # Class of committed instruction
system.cpu00.commit.op_class_0::SimdCvt             0      0.00%     70.93% # Class of committed instruction
system.cpu00.commit.op_class_0::SimdMisc            0      0.00%     70.93% # Class of committed instruction
system.cpu00.commit.op_class_0::SimdMult            0      0.00%     70.93% # Class of committed instruction
system.cpu00.commit.op_class_0::SimdMultAcc            0      0.00%     70.93% # Class of committed instruction
system.cpu00.commit.op_class_0::SimdShift            0      0.00%     70.93% # Class of committed instruction
system.cpu00.commit.op_class_0::SimdShiftAcc            0      0.00%     70.93% # Class of committed instruction
system.cpu00.commit.op_class_0::SimdSqrt            0      0.00%     70.93% # Class of committed instruction
system.cpu00.commit.op_class_0::SimdFloatAdd            0      0.00%     70.93% # Class of committed instruction
system.cpu00.commit.op_class_0::SimdFloatAlu            0      0.00%     70.93% # Class of committed instruction
system.cpu00.commit.op_class_0::SimdFloatCmp            0      0.00%     70.93% # Class of committed instruction
system.cpu00.commit.op_class_0::SimdFloatCvt            0      0.00%     70.93% # Class of committed instruction
system.cpu00.commit.op_class_0::SimdFloatDiv            0      0.00%     70.93% # Class of committed instruction
system.cpu00.commit.op_class_0::SimdFloatMisc            0      0.00%     70.93% # Class of committed instruction
system.cpu00.commit.op_class_0::SimdFloatMult            0      0.00%     70.93% # Class of committed instruction
system.cpu00.commit.op_class_0::SimdFloatMultAcc            0      0.00%     70.93% # Class of committed instruction
system.cpu00.commit.op_class_0::SimdFloatSqrt            0      0.00%     70.93% # Class of committed instruction
system.cpu00.commit.op_class_0::MemRead        161976     16.73%     87.66% # Class of committed instruction
system.cpu00.commit.op_class_0::MemWrite       119516     12.34%    100.00% # Class of committed instruction
system.cpu00.commit.op_class_0::IprAccess            0      0.00%    100.00% # Class of committed instruction
system.cpu00.commit.op_class_0::InstPrefetch            0      0.00%    100.00% # Class of committed instruction
system.cpu00.commit.op_class_0::total          968360                       # Class of committed instruction
system.cpu00.commit.bw_lim_events               53559                       # number cycles where commit BW limit reached
system.cpu00.rob.rob_reads                    1819480                       # The number of ROB reads
system.cpu00.rob.rob_writes                   2167116                       # The number of ROB writes
system.cpu00.timesIdled                          1397                       # Number of times that the entire CPU went into an idle state and unscheduled itself
system.cpu00.idleCycles                        197208                       # Total number of cycles that the CPU has spent unscheduled due to idling
system.cpu00.quiesceCycles                      74985                       # Total number of cycles that CPU has spent quiesced or waiting for an interrupt
system.cpu00.committedInsts                    869762                       # Number of Instructions Simulated
system.cpu00.committedOps                      869762                       # Number of Ops (including micro ops) Simulated
system.cpu00.cpi                             1.168033                       # CPI: Cycles Per Instruction
system.cpu00.cpi_total                       1.168033                       # CPI: Total CPI of All Threads
system.cpu00.ipc                             0.856140                       # IPC: Instructions Per Cycle
system.cpu00.ipc_total                       0.856140                       # IPC: Total IPC of All Threads
system.cpu00.int_regfile_reads                1142838                       # number of integer regfile reads
system.cpu00.int_regfile_writes                612563                       # number of integer regfile writes
system.cpu00.fp_regfile_reads                  151787                       # number of floating regfile reads
system.cpu00.fp_regfile_writes                 102882                       # number of floating regfile writes
system.cpu00.misc_regfile_reads                  4737                       # number of misc regfile reads
system.cpu00.misc_regfile_writes                 2251                       # number of misc regfile writes
system.cpu00.dcache.tags.replacements           17329                       # number of replacements
system.cpu00.dcache.tags.tagsinuse          63.028362                       # Cycle average of tags in use
system.cpu00.dcache.tags.total_refs            219212                       # Total number of references to valid blocks.
system.cpu00.dcache.tags.sampled_refs           17393                       # Sample count of references to valid blocks.
system.cpu00.dcache.tags.avg_refs           12.603461                       # Average number of references to valid blocks.
system.cpu00.dcache.tags.warmup_cycle        61602660                       # Cycle when the warmup percentage was hit.
system.cpu00.dcache.tags.occ_blocks::cpu00.data    63.028362                       # Average occupied blocks per requestor
system.cpu00.dcache.tags.occ_percent::cpu00.data     0.984818                       # Average percentage of cache occupancy
system.cpu00.dcache.tags.occ_percent::total     0.984818                       # Average percentage of cache occupancy
system.cpu00.dcache.tags.occ_task_id_blocks::1024           64                       # Occupied blocks per task id
system.cpu00.dcache.tags.age_task_id_blocks_1024::0           55                       # Occupied blocks per task id
system.cpu00.dcache.tags.age_task_id_blocks_1024::1            9                       # Occupied blocks per task id
system.cpu00.dcache.tags.occ_task_id_percent::1024            1                       # Percentage of cache occupancy per task id
system.cpu00.dcache.tags.tag_accesses          559319                       # Number of tag accesses
system.cpu00.dcache.tags.data_accesses         559319                       # Number of data accesses
system.cpu00.dcache.ReadReq_hits::cpu00.data       136209                       # number of ReadReq hits
system.cpu00.dcache.ReadReq_hits::total        136209                       # number of ReadReq hits
system.cpu00.dcache.WriteReq_hits::cpu00.data        80969                       # number of WriteReq hits
system.cpu00.dcache.WriteReq_hits::total        80969                       # number of WriteReq hits
system.cpu00.dcache.LoadLockedReq_hits::cpu00.data          841                       # number of LoadLockedReq hits
system.cpu00.dcache.LoadLockedReq_hits::total          841                       # number of LoadLockedReq hits
system.cpu00.dcache.StoreCondReq_hits::cpu00.data         1112                       # number of StoreCondReq hits
system.cpu00.dcache.StoreCondReq_hits::total         1112                       # number of StoreCondReq hits
system.cpu00.dcache.demand_hits::cpu00.data       217178                       # number of demand (read+write) hits
system.cpu00.dcache.demand_hits::total         217178                       # number of demand (read+write) hits
system.cpu00.dcache.overall_hits::cpu00.data       217178                       # number of overall hits
system.cpu00.dcache.overall_hits::total        217178                       # number of overall hits
system.cpu00.dcache.ReadReq_misses::cpu00.data        13979                       # number of ReadReq misses
system.cpu00.dcache.ReadReq_misses::total        13979                       # number of ReadReq misses
system.cpu00.dcache.WriteReq_misses::cpu00.data        37424                       # number of WriteReq misses
system.cpu00.dcache.WriteReq_misses::total        37424                       # number of WriteReq misses
system.cpu00.dcache.LoadLockedReq_misses::cpu00.data          362                       # number of LoadLockedReq misses
system.cpu00.dcache.LoadLockedReq_misses::total          362                       # number of LoadLockedReq misses
system.cpu00.dcache.StoreCondReq_misses::cpu00.data           10                       # number of StoreCondReq misses
system.cpu00.dcache.StoreCondReq_misses::total           10                       # number of StoreCondReq misses
system.cpu00.dcache.demand_misses::cpu00.data        51403                       # number of demand (read+write) misses
system.cpu00.dcache.demand_misses::total        51403                       # number of demand (read+write) misses
system.cpu00.dcache.overall_misses::cpu00.data        51403                       # number of overall misses
system.cpu00.dcache.overall_misses::total        51403                       # number of overall misses
system.cpu00.dcache.ReadReq_miss_latency::cpu00.data    463946049                       # number of ReadReq miss cycles
system.cpu00.dcache.ReadReq_miss_latency::total    463946049                       # number of ReadReq miss cycles
system.cpu00.dcache.WriteReq_miss_latency::cpu00.data   5393789393                       # number of WriteReq miss cycles
system.cpu00.dcache.WriteReq_miss_latency::total   5393789393                       # number of WriteReq miss cycles
system.cpu00.dcache.LoadLockedReq_miss_latency::cpu00.data      2991897                       # number of LoadLockedReq miss cycles
system.cpu00.dcache.LoadLockedReq_miss_latency::total      2991897                       # number of LoadLockedReq miss cycles
system.cpu00.dcache.StoreCondReq_miss_latency::cpu00.data       282123                       # number of StoreCondReq miss cycles
system.cpu00.dcache.StoreCondReq_miss_latency::total       282123                       # number of StoreCondReq miss cycles
system.cpu00.dcache.demand_miss_latency::cpu00.data   5857735442                       # number of demand (read+write) miss cycles
system.cpu00.dcache.demand_miss_latency::total   5857735442                       # number of demand (read+write) miss cycles
system.cpu00.dcache.overall_miss_latency::cpu00.data   5857735442                       # number of overall miss cycles
system.cpu00.dcache.overall_miss_latency::total   5857735442                       # number of overall miss cycles
system.cpu00.dcache.ReadReq_accesses::cpu00.data       150188                       # number of ReadReq accesses(hits+misses)
system.cpu00.dcache.ReadReq_accesses::total       150188                       # number of ReadReq accesses(hits+misses)
system.cpu00.dcache.WriteReq_accesses::cpu00.data       118393                       # number of WriteReq accesses(hits+misses)
system.cpu00.dcache.WriteReq_accesses::total       118393                       # number of WriteReq accesses(hits+misses)
system.cpu00.dcache.LoadLockedReq_accesses::cpu00.data         1203                       # number of LoadLockedReq accesses(hits+misses)
system.cpu00.dcache.LoadLockedReq_accesses::total         1203                       # number of LoadLockedReq accesses(hits+misses)
system.cpu00.dcache.StoreCondReq_accesses::cpu00.data         1122                       # number of StoreCondReq accesses(hits+misses)
system.cpu00.dcache.StoreCondReq_accesses::total         1122                       # number of StoreCondReq accesses(hits+misses)
system.cpu00.dcache.demand_accesses::cpu00.data       268581                       # number of demand (read+write) accesses
system.cpu00.dcache.demand_accesses::total       268581                       # number of demand (read+write) accesses
system.cpu00.dcache.overall_accesses::cpu00.data       268581                       # number of overall (read+write) accesses
system.cpu00.dcache.overall_accesses::total       268581                       # number of overall (read+write) accesses
system.cpu00.dcache.ReadReq_miss_rate::cpu00.data     0.093077                       # miss rate for ReadReq accesses
system.cpu00.dcache.ReadReq_miss_rate::total     0.093077                       # miss rate for ReadReq accesses
system.cpu00.dcache.WriteReq_miss_rate::cpu00.data     0.316100                       # miss rate for WriteReq accesses
system.cpu00.dcache.WriteReq_miss_rate::total     0.316100                       # miss rate for WriteReq accesses
system.cpu00.dcache.LoadLockedReq_miss_rate::cpu00.data     0.300914                       # miss rate for LoadLockedReq accesses
system.cpu00.dcache.LoadLockedReq_miss_rate::total     0.300914                       # miss rate for LoadLockedReq accesses
system.cpu00.dcache.StoreCondReq_miss_rate::cpu00.data     0.008913                       # miss rate for StoreCondReq accesses
system.cpu00.dcache.StoreCondReq_miss_rate::total     0.008913                       # miss rate for StoreCondReq accesses
system.cpu00.dcache.demand_miss_rate::cpu00.data     0.191387                       # miss rate for demand accesses
system.cpu00.dcache.demand_miss_rate::total     0.191387                       # miss rate for demand accesses
system.cpu00.dcache.overall_miss_rate::cpu00.data     0.191387                       # miss rate for overall accesses
system.cpu00.dcache.overall_miss_rate::total     0.191387                       # miss rate for overall accesses
system.cpu00.dcache.ReadReq_avg_miss_latency::cpu00.data 33188.786680                       # average ReadReq miss latency
system.cpu00.dcache.ReadReq_avg_miss_latency::total 33188.786680                       # average ReadReq miss latency
system.cpu00.dcache.WriteReq_avg_miss_latency::cpu00.data 144126.480146                       # average WriteReq miss latency
system.cpu00.dcache.WriteReq_avg_miss_latency::total 144126.480146                       # average WriteReq miss latency
system.cpu00.dcache.LoadLockedReq_avg_miss_latency::cpu00.data  8264.908840                       # average LoadLockedReq miss latency
system.cpu00.dcache.LoadLockedReq_avg_miss_latency::total  8264.908840                       # average LoadLockedReq miss latency
system.cpu00.dcache.StoreCondReq_avg_miss_latency::cpu00.data 28212.300000                       # average StoreCondReq miss latency
system.cpu00.dcache.StoreCondReq_avg_miss_latency::total 28212.300000                       # average StoreCondReq miss latency
system.cpu00.dcache.demand_avg_miss_latency::cpu00.data 113957.073361                       # average overall miss latency
system.cpu00.dcache.demand_avg_miss_latency::total 113957.073361                       # average overall miss latency
system.cpu00.dcache.overall_avg_miss_latency::cpu00.data 113957.073361                       # average overall miss latency
system.cpu00.dcache.overall_avg_miss_latency::total 113957.073361                       # average overall miss latency
system.cpu00.dcache.blocked_cycles::no_mshrs       159926                       # number of cycles access was blocked
system.cpu00.dcache.blocked_cycles::no_targets            0                       # number of cycles access was blocked
system.cpu00.dcache.blocked::no_mshrs            3543                       # number of cycles access was blocked
system.cpu00.dcache.blocked::no_targets             0                       # number of cycles access was blocked
system.cpu00.dcache.avg_blocked_cycles::no_mshrs    45.138583                       # average number of cycles each access was blocked
system.cpu00.dcache.avg_blocked_cycles::no_targets          nan                       # average number of cycles each access was blocked
system.cpu00.dcache.fast_writes                     0                       # number of fast writes performed
system.cpu00.dcache.cache_copies                    0                       # number of cache copies performed
system.cpu00.dcache.writebacks::writebacks        12880                       # number of writebacks
system.cpu00.dcache.writebacks::total           12880                       # number of writebacks
system.cpu00.dcache.ReadReq_mshr_hits::cpu00.data         4360                       # number of ReadReq MSHR hits
system.cpu00.dcache.ReadReq_mshr_hits::total         4360                       # number of ReadReq MSHR hits
system.cpu00.dcache.WriteReq_mshr_hits::cpu00.data        29665                       # number of WriteReq MSHR hits
system.cpu00.dcache.WriteReq_mshr_hits::total        29665                       # number of WriteReq MSHR hits
system.cpu00.dcache.LoadLockedReq_mshr_hits::cpu00.data          178                       # number of LoadLockedReq MSHR hits
system.cpu00.dcache.LoadLockedReq_mshr_hits::total          178                       # number of LoadLockedReq MSHR hits
system.cpu00.dcache.demand_mshr_hits::cpu00.data        34025                       # number of demand (read+write) MSHR hits
system.cpu00.dcache.demand_mshr_hits::total        34025                       # number of demand (read+write) MSHR hits
system.cpu00.dcache.overall_mshr_hits::cpu00.data        34025                       # number of overall MSHR hits
system.cpu00.dcache.overall_mshr_hits::total        34025                       # number of overall MSHR hits
system.cpu00.dcache.ReadReq_mshr_misses::cpu00.data         9619                       # number of ReadReq MSHR misses
system.cpu00.dcache.ReadReq_mshr_misses::total         9619                       # number of ReadReq MSHR misses
system.cpu00.dcache.WriteReq_mshr_misses::cpu00.data         7759                       # number of WriteReq MSHR misses
system.cpu00.dcache.WriteReq_mshr_misses::total         7759                       # number of WriteReq MSHR misses
system.cpu00.dcache.LoadLockedReq_mshr_misses::cpu00.data          184                       # number of LoadLockedReq MSHR misses
system.cpu00.dcache.LoadLockedReq_mshr_misses::total          184                       # number of LoadLockedReq MSHR misses
system.cpu00.dcache.StoreCondReq_mshr_misses::cpu00.data            9                       # number of StoreCondReq MSHR misses
system.cpu00.dcache.StoreCondReq_mshr_misses::total            9                       # number of StoreCondReq MSHR misses
system.cpu00.dcache.demand_mshr_misses::cpu00.data        17378                       # number of demand (read+write) MSHR misses
system.cpu00.dcache.demand_mshr_misses::total        17378                       # number of demand (read+write) MSHR misses
system.cpu00.dcache.overall_mshr_misses::cpu00.data        17378                       # number of overall MSHR misses
system.cpu00.dcache.overall_mshr_misses::total        17378                       # number of overall MSHR misses
system.cpu00.dcache.ReadReq_mshr_miss_latency::cpu00.data    261611613                       # number of ReadReq MSHR miss cycles
system.cpu00.dcache.ReadReq_mshr_miss_latency::total    261611613                       # number of ReadReq MSHR miss cycles
system.cpu00.dcache.WriteReq_mshr_miss_latency::cpu00.data   1142066281                       # number of WriteReq MSHR miss cycles
system.cpu00.dcache.WriteReq_mshr_miss_latency::total   1142066281                       # number of WriteReq MSHR miss cycles
system.cpu00.dcache.LoadLockedReq_mshr_miss_latency::cpu00.data      1156356                       # number of LoadLockedReq MSHR miss cycles
system.cpu00.dcache.LoadLockedReq_mshr_miss_latency::total      1156356                       # number of LoadLockedReq MSHR miss cycles
system.cpu00.dcache.StoreCondReq_mshr_miss_latency::cpu00.data       271674                       # number of StoreCondReq MSHR miss cycles
system.cpu00.dcache.StoreCondReq_mshr_miss_latency::total       271674                       # number of StoreCondReq MSHR miss cycles
system.cpu00.dcache.demand_mshr_miss_latency::cpu00.data   1403677894                       # number of demand (read+write) MSHR miss cycles
system.cpu00.dcache.demand_mshr_miss_latency::total   1403677894                       # number of demand (read+write) MSHR miss cycles
system.cpu00.dcache.overall_mshr_miss_latency::cpu00.data   1403677894                       # number of overall MSHR miss cycles
system.cpu00.dcache.overall_mshr_miss_latency::total   1403677894                       # number of overall MSHR miss cycles
system.cpu00.dcache.ReadReq_mshr_miss_rate::cpu00.data     0.064046                       # mshr miss rate for ReadReq accesses
system.cpu00.dcache.ReadReq_mshr_miss_rate::total     0.064046                       # mshr miss rate for ReadReq accesses
system.cpu00.dcache.WriteReq_mshr_miss_rate::cpu00.data     0.065536                       # mshr miss rate for WriteReq accesses
system.cpu00.dcache.WriteReq_mshr_miss_rate::total     0.065536                       # mshr miss rate for WriteReq accesses
system.cpu00.dcache.LoadLockedReq_mshr_miss_rate::cpu00.data     0.152951                       # mshr miss rate for LoadLockedReq accesses
system.cpu00.dcache.LoadLockedReq_mshr_miss_rate::total     0.152951                       # mshr miss rate for LoadLockedReq accesses
system.cpu00.dcache.StoreCondReq_mshr_miss_rate::cpu00.data     0.008021                       # mshr miss rate for StoreCondReq accesses
system.cpu00.dcache.StoreCondReq_mshr_miss_rate::total     0.008021                       # mshr miss rate for StoreCondReq accesses
system.cpu00.dcache.demand_mshr_miss_rate::cpu00.data     0.064703                       # mshr miss rate for demand accesses
system.cpu00.dcache.demand_mshr_miss_rate::total     0.064703                       # mshr miss rate for demand accesses
system.cpu00.dcache.overall_mshr_miss_rate::cpu00.data     0.064703                       # mshr miss rate for overall accesses
system.cpu00.dcache.overall_mshr_miss_rate::total     0.064703                       # mshr miss rate for overall accesses
system.cpu00.dcache.ReadReq_avg_mshr_miss_latency::cpu00.data 27197.381537                       # average ReadReq mshr miss latency
system.cpu00.dcache.ReadReq_avg_mshr_miss_latency::total 27197.381537                       # average ReadReq mshr miss latency
system.cpu00.dcache.WriteReq_avg_mshr_miss_latency::cpu00.data 147192.457920                       # average WriteReq mshr miss latency
system.cpu00.dcache.WriteReq_avg_mshr_miss_latency::total 147192.457920                       # average WriteReq mshr miss latency
[...]
system.tol2bus.pkt_count_system.cpu06.dcache.mem_side::system.l2.cpu_side         3280                       # Packet count per connected master and slave (bytes)
system.tol2bus.pkt_count_system.cpu07.icache.mem_side::system.l2.cpu_side         2355                       # Packet count per connected master and slave (bytes)
system.tol2bus.pkt_count_system.cpu07.dcache.mem_side::system.l2.cpu_side         4311                       # Packet count per connected master and slave (bytes)
system.tol2bus.pkt_count_system.cpu08.icache.mem_side::system.l2.cpu_side         2685                       # Packet count per connected master and slave (bytes)
system.tol2bus.pkt_count_system.cpu08.dcache.mem_side::system.l2.cpu_side         4513                       # Packet count per connected master and slave (bytes)
system.tol2bus.pkt_count_system.cpu09.icache.mem_side::system.l2.cpu_side         1281                       # Packet count per connected master and slave (bytes)
system.tol2bus.pkt_count_system.cpu09.dcache.mem_side::system.l2.cpu_side         1587                       # Packet count per connected master and slave (bytes)
system.tol2bus.pkt_count_system.cpu10.icache.mem_side::system.l2.cpu_side         1147                       # Packet count per connected master and slave (bytes)
system.tol2bus.pkt_count_system.cpu10.dcache.mem_side::system.l2.cpu_side         1538                       # Packet count per connected master and slave (bytes)
system.tol2bus.pkt_count_system.cpu11.icache.mem_side::system.l2.cpu_side         1226                       # Packet count per connected master and slave (bytes)
system.tol2bus.pkt_count_system.cpu11.dcache.mem_side::system.l2.cpu_side         1609                       # Packet count per connected master and slave (bytes)
system.tol2bus.pkt_count_system.cpu12.icache.mem_side::system.l2.cpu_side         1139                       # Packet count per connected master and slave (bytes)
system.tol2bus.pkt_count_system.cpu12.dcache.mem_side::system.l2.cpu_side         1639                       # Packet count per connected master and slave (bytes)
system.tol2bus.pkt_count_system.cpu13.icache.mem_side::system.l2.cpu_side         1017                       # Packet count per connected master and slave (bytes)
system.tol2bus.pkt_count_system.cpu13.dcache.mem_side::system.l2.cpu_side         1503                       # Packet count per connected master and slave (bytes)
system.tol2bus.pkt_count_system.cpu14.icache.mem_side::system.l2.cpu_side          923                       # Packet count per connected master and slave (bytes)
system.tol2bus.pkt_count_system.cpu14.dcache.mem_side::system.l2.cpu_side         1577                       # Packet count per connected master and slave (bytes)
system.tol2bus.pkt_count_system.cpu15.icache.mem_side::system.l2.cpu_side         2988                       # Packet count per connected master and slave (bytes)
system.tol2bus.pkt_count_system.cpu15.dcache.mem_side::system.l2.cpu_side         5120                       # Packet count per connected master and slave (bytes)
system.tol2bus.pkt_count::total                146125                       # Packet count per connected master and slave (bytes)
system.tol2bus.pkt_size_system.cpu00.icache.mem_side::system.l2.cpu_side       982912                       # Cumulative packet size per connected master and slave (bytes)
system.tol2bus.pkt_size_system.cpu00.dcache.mem_side::system.l2.cpu_side      1923904                       # Cumulative packet size per connected master and slave (bytes)
system.tol2bus.pkt_size_system.cpu01.icache.mem_side::system.l2.cpu_side       110784                       # Cumulative packet size per connected master and slave (bytes)
system.tol2bus.pkt_size_system.cpu01.dcache.mem_side::system.l2.cpu_side       147392                       # Cumulative packet size per connected master and slave (bytes)
system.tol2bus.pkt_size_system.cpu02.icache.mem_side::system.l2.cpu_side        54720                       # Cumulative packet size per connected master and slave (bytes)
system.tol2bus.pkt_size_system.cpu02.dcache.mem_side::system.l2.cpu_side        66880                       # Cumulative packet size per connected master and slave (bytes)
system.tol2bus.pkt_size_system.cpu03.icache.mem_side::system.l2.cpu_side        88896                       # Cumulative packet size per connected master and slave (bytes)
system.tol2bus.pkt_size_system.cpu03.dcache.mem_side::system.l2.cpu_side       102208                       # Cumulative packet size per connected master and slave (bytes)
system.tol2bus.pkt_size_system.cpu04.icache.mem_side::system.l2.cpu_side        97152                       # Cumulative packet size per connected master and slave (bytes)
system.tol2bus.pkt_size_system.cpu04.dcache.mem_side::system.l2.cpu_side       118016                       # Cumulative packet size per connected master and slave (bytes)
system.tol2bus.pkt_size_system.cpu05.icache.mem_side::system.l2.cpu_side        35520                       # Cumulative packet size per connected master and slave (bytes)
system.tol2bus.pkt_size_system.cpu05.dcache.mem_side::system.l2.cpu_side        46784                       # Cumulative packet size per connected master and slave (bytes)
system.tol2bus.pkt_size_system.cpu06.icache.mem_side::system.l2.cpu_side        84416                       # Cumulative packet size per connected master and slave (bytes)
system.tol2bus.pkt_size_system.cpu06.dcache.mem_side::system.l2.cpu_side        90752                       # Cumulative packet size per connected master and slave (bytes)
system.tol2bus.pkt_size_system.cpu07.icache.mem_side::system.l2.cpu_side        90112                       # Cumulative packet size per connected master and slave (bytes)
system.tol2bus.pkt_size_system.cpu07.dcache.mem_side::system.l2.cpu_side       120960                       # Cumulative packet size per connected master and slave (bytes)
system.tol2bus.pkt_size_system.cpu08.icache.mem_side::system.l2.cpu_side       104256                       # Cumulative packet size per connected master and slave (bytes)
system.tol2bus.pkt_size_system.cpu08.dcache.mem_side::system.l2.cpu_side       114624                       # Cumulative packet size per connected master and slave (bytes)
system.tol2bus.pkt_size_system.cpu09.icache.mem_side::system.l2.cpu_side        45760                       # Cumulative packet size per connected master and slave (bytes)
system.tol2bus.pkt_size_system.cpu09.dcache.mem_side::system.l2.cpu_side        47680                       # Cumulative packet size per connected master and slave (bytes)
system.tol2bus.pkt_size_system.cpu10.icache.mem_side::system.l2.cpu_side        40320                       # Cumulative packet size per connected master and slave (bytes)
system.tol2bus.pkt_size_system.cpu10.dcache.mem_side::system.l2.cpu_side        50112                       # Cumulative packet size per connected master and slave (bytes)
system.tol2bus.pkt_size_system.cpu11.icache.mem_side::system.l2.cpu_side        43136                       # Cumulative packet size per connected master and slave (bytes)
system.tol2bus.pkt_size_system.cpu11.dcache.mem_side::system.l2.cpu_side        49792                       # Cumulative packet size per connected master and slave (bytes)
system.tol2bus.pkt_size_system.cpu12.icache.mem_side::system.l2.cpu_side        39936                       # Cumulative packet size per connected master and slave (bytes)
system.tol2bus.pkt_size_system.cpu12.dcache.mem_side::system.l2.cpu_side        55040                       # Cumulative packet size per connected master and slave (bytes)
system.tol2bus.pkt_size_system.cpu13.icache.mem_side::system.l2.cpu_side        35072                       # Cumulative packet size per connected master and slave (bytes)
system.tol2bus.pkt_size_system.cpu13.dcache.mem_side::system.l2.cpu_side        46592                       # Cumulative packet size per connected master and slave (bytes)
system.tol2bus.pkt_size_system.cpu14.icache.mem_side::system.l2.cpu_side        31296                       # Cumulative packet size per connected master and slave (bytes)
system.tol2bus.pkt_size_system.cpu14.dcache.mem_side::system.l2.cpu_side        56512                       # Cumulative packet size per connected master and slave (bytes)
system.tol2bus.pkt_size_system.cpu15.icache.mem_side::system.l2.cpu_side       117184                       # Cumulative packet size per connected master and slave (bytes)
system.tol2bus.pkt_size_system.cpu15.dcache.mem_side::system.l2.cpu_side       148992                       # Cumulative packet size per connected master and slave (bytes)
system.tol2bus.pkt_size::total                5187712                       # Cumulative packet size per connected master and slave (bytes)
system.tol2bus.snoops                            6278                       # Total snoops (count)
system.tol2bus.snoop_fanout::samples            55013                       # Request fanout histogram
system.tol2bus.snoop_fanout::mean            1.913711                       # Request fanout histogram
system.tol2bus.snoop_fanout::stdev           3.629829                       # Request fanout histogram
system.tol2bus.snoop_fanout::underflows             0      0.00%      0.00% # Request fanout histogram
system.tol2bus.snoop_fanout::0                  34265     62.29%     62.29% # Request fanout histogram
system.tol2bus.snoop_fanout::1                   6998     12.72%     75.01% # Request fanout histogram
system.tol2bus.snoop_fanout::2                   1938      3.52%     78.53% # Request fanout histogram
system.tol2bus.snoop_fanout::3                   1372      2.49%     81.02% # Request fanout histogram
system.tol2bus.snoop_fanout::4                   1239      2.25%     83.27% # Request fanout histogram
system.tol2bus.snoop_fanout::5                   1151      2.09%     85.37% # Request fanout histogram
system.tol2bus.snoop_fanout::6                   1174      2.13%     87.50% # Request fanout histogram
system.tol2bus.snoop_fanout::7                    987      1.79%     89.30% # Request fanout histogram
system.tol2bus.snoop_fanout::8                    844      1.53%     90.83% # Request fanout histogram
system.tol2bus.snoop_fanout::9                    850      1.55%     92.37% # Request fanout histogram
system.tol2bus.snoop_fanout::10                   877      1.59%     93.97% # Request fanout histogram
system.tol2bus.snoop_fanout::11                   770      1.40%     95.37% # Request fanout histogram
system.tol2bus.snoop_fanout::12                   747      1.36%     96.73% # Request fanout histogram
system.tol2bus.snoop_fanout::13                   662      1.20%     97.93% # Request fanout histogram
system.tol2bus.snoop_fanout::14                   672      1.22%     99.15% # Request fanout histogram
system.tol2bus.snoop_fanout::15                   467      0.85%    100.00% # Request fanout histogram
system.tol2bus.snoop_fanout::16                     0      0.00%    100.00% # Request fanout histogram
system.tol2bus.snoop_fanout::17                     0      0.00%    100.00% # Request fanout histogram
system.tol2bus.snoop_fanout::18                     0      0.00%    100.00% # Request fanout histogram
system.tol2bus.snoop_fanout::19                     0      0.00%    100.00% # Request fanout histogram
system.tol2bus.snoop_fanout::20                     0      0.00%    100.00% # Request fanout histogram
system.tol2bus.snoop_fanout::21                     0      0.00%    100.00% # Request fanout histogram
system.tol2bus.snoop_fanout::22                     0      0.00%    100.00% # Request fanout histogram
system.tol2bus.snoop_fanout::23                     0      0.00%    100.00% # Request fanout histogram
system.tol2bus.snoop_fanout::24                     0      0.00%    100.00% # Request fanout histogram
system.tol2bus.snoop_fanout::25                     0      0.00%    100.00% # Request fanout histogram
system.tol2bus.snoop_fanout::26                     0      0.00%    100.00% # Request fanout histogram
system.tol2bus.snoop_fanout::27                     0      0.00%    100.00% # Request fanout histogram
system.tol2bus.snoop_fanout::28                     0      0.00%    100.00% # Request fanout histogram
system.tol2bus.snoop_fanout::29                     0      0.00%    100.00% # Request fanout histogram
system.tol2bus.snoop_fanout::30                     0      0.00%    100.00% # Request fanout histogram
system.tol2bus.snoop_fanout::31                     0      0.00%    100.00% # Request fanout histogram
system.tol2bus.snoop_fanout::32                     0      0.00%    100.00% # Request fanout histogram
system.tol2bus.snoop_fanout::overflows              0      0.00%    100.00% # Request fanout histogram
system.tol2bus.snoop_fanout::min_value              0                       # Request fanout histogram
system.tol2bus.snoop_fanout::max_value             15                       # Request fanout histogram
system.tol2bus.snoop_fanout::total              55013                       # Request fanout histogram
system.tol2bus.reqLayer0.occupancy          190558584                       # Layer occupancy (ticks)
system.tol2bus.reqLayer0.utilization             15.0                       # Layer utilization (%)
system.tol2bus.respLayer0.occupancy          27990126                       # Layer occupancy (ticks)
system.tol2bus.respLayer0.utilization             2.2                       # Layer utilization (%)
system.tol2bus.respLayer1.occupancy          61417307                       # Layer occupancy (ticks)
system.tol2bus.respLayer1.utilization             4.8                       # Layer utilization (%)
system.tol2bus.respLayer2.occupancy           3916584                       # Layer occupancy (ticks)
system.tol2bus.respLayer2.utilization             0.3                       # Layer utilization (%)
system.tol2bus.respLayer3.occupancy           7236332                       # Layer occupancy (ticks)
system.tol2bus.respLayer3.utilization             0.6                       # Layer utilization (%)
system.tol2bus.respLayer4.occupancy           2375395                       # Layer occupancy (ticks)
system.tol2bus.respLayer4.utilization             0.2                       # Layer utilization (%)
system.tol2bus.respLayer5.occupancy           2915634                       # Layer occupancy (ticks)
system.tol2bus.respLayer5.utilization             0.2                       # Layer utilization (%)
system.tol2bus.respLayer6.occupancy           3320274                       # Layer occupancy (ticks)
system.tol2bus.respLayer6.utilization             0.3                       # Layer utilization (%)
system.tol2bus.respLayer7.occupancy           5570810                       # Layer occupancy (ticks)
system.tol2bus.respLayer7.utilization             0.4                       # Layer utilization (%)
system.tol2bus.respLayer8.occupancy           3531285                       # Layer occupancy (ticks)
system.tol2bus.respLayer8.utilization             0.3                       # Layer utilization (%)
system.tol2bus.respLayer9.occupancy           5598227                       # Layer occupancy (ticks)
system.tol2bus.respLayer9.utilization             0.4                       # Layer utilization (%)
system.tol2bus.respLayer10.occupancy          1719282                       # Layer occupancy (ticks)
system.tol2bus.respLayer10.utilization            0.1                       # Layer utilization (%)
system.tol2bus.respLayer11.occupancy          2161703                       # Layer occupancy (ticks)
system.tol2bus.respLayer11.utilization            0.2                       # Layer utilization (%)
system.tol2bus.respLayer12.occupancy          3183254                       # Layer occupancy (ticks)
system.tol2bus.respLayer12.utilization            0.3                       # Layer utilization (%)
system.tol2bus.respLayer13.occupancy          4787517                       # Layer occupancy (ticks)
system.tol2bus.respLayer13.utilization            0.4                       # Layer utilization (%)
system.tol2bus.respLayer14.occupancy          3371425                       # Layer occupancy (ticks)
system.tol2bus.respLayer14.utilization            0.3                       # Layer utilization (%)
system.tol2bus.respLayer15.occupancy          5997585                       # Layer occupancy (ticks)
system.tol2bus.respLayer15.utilization            0.5                       # Layer utilization (%)
system.tol2bus.respLayer16.occupancy          3741721                       # Layer occupancy (ticks)
system.tol2bus.respLayer16.utilization            0.3                       # Layer utilization (%)
system.tol2bus.respLayer17.occupancy          6630328                       # Layer occupancy (ticks)
system.tol2bus.respLayer17.utilization            0.5                       # Layer utilization (%)
system.tol2bus.respLayer18.occupancy          2040848                       # Layer occupancy (ticks)
system.tol2bus.respLayer18.utilization            0.2                       # Layer utilization (%)
system.tol2bus.respLayer19.occupancy          2199699                       # Layer occupancy (ticks)
system.tol2bus.respLayer19.utilization            0.2                       # Layer utilization (%)
system.tol2bus.respLayer20.occupancy          1853916                       # Layer occupancy (ticks)
system.tol2bus.respLayer20.utilization            0.1                       # Layer utilization (%)
system.tol2bus.respLayer21.occupancy          2107151                       # Layer occupancy (ticks)
system.tol2bus.respLayer21.utilization            0.2                       # Layer utilization (%)
system.tol2bus.respLayer22.occupancy          1986269                       # Layer occupancy (ticks)
system.tol2bus.respLayer22.utilization            0.2                       # Layer utilization (%)
system.tol2bus.respLayer23.occupancy          2205818                       # Layer occupancy (ticks)
system.tol2bus.respLayer23.utilization            0.2                       # Layer utilization (%)
system.tol2bus.respLayer24.occupancy          1836019                       # Layer occupancy (ticks)
system.tol2bus.respLayer24.utilization            0.1                       # Layer utilization (%)
system.tol2bus.respLayer25.occupancy          2190759                       # Layer occupancy (ticks)
system.tol2bus.respLayer25.utilization            0.2                       # Layer utilization (%)
system.tol2bus.respLayer26.occupancy          1690541                       # Layer occupancy (ticks)
system.tol2bus.respLayer26.utilization            0.1                       # Layer utilization (%)
system.tol2bus.respLayer27.occupancy          2077532                       # Layer occupancy (ticks)
system.tol2bus.respLayer27.utilization            0.2                       # Layer utilization (%)
system.tol2bus.respLayer28.occupancy          1575184                       # Layer occupancy (ticks)
system.tol2bus.respLayer28.utilization            0.1                       # Layer utilization (%)
system.tol2bus.respLayer29.occupancy          2057227                       # Layer occupancy (ticks)
system.tol2bus.respLayer29.utilization            0.2                       # Layer utilization (%)
system.tol2bus.respLayer30.occupancy          4118707                       # Layer occupancy (ticks)
system.tol2bus.respLayer30.utilization            0.3                       # Layer utilization (%)
system.tol2bus.respLayer31.occupancy          7139813                       # Layer occupancy (ticks)
system.tol2bus.respLayer31.utilization            0.6                       # Layer utilization (%)

---------- End Simulation Statistics   ----------
