
---------- Begin Simulation Statistics ----------
sim_seconds                                  0.001293                       # Number of seconds simulated
sim_ticks                                  1292851751                       # Number of ticks simulated
final_tick                                 1292851751                       # Number of ticks from beginning of simulation (restored from checkpoints and never reset)
sim_freq                                 1000000000000                       # Frequency of simulated ticks
host_inst_rate                                 225899                       # Simulator instruction rate (inst/s)
host_op_rate                                   225898                       # Simulator op (including micro ops) rate (op/s)
host_tick_rate                              126072097                       # Simulator tick rate (ticks/s)
host_mem_usage                                 694640                       # Number of bytes of host memory used
host_seconds                                    10.26                       # Real time elapsed on the host
sim_insts                                     2316555                       # Number of instructions simulated
sim_ops                                       2316555                       # Number of ops (including micro ops) simulated
system.voltage_domain.voltage                       1                       # Voltage in Volts
system.clk_domain.clock                          1000                       # Clock period in ticks
system.mem_ctrls.bytes_read::cpu00.inst        123328                       # Number of bytes read from this memory
system.mem_ctrls.bytes_read::cpu00.data        378432                       # Number of bytes read from this memory
system.mem_ctrls.bytes_read::cpu01.inst         11840                       # Number of bytes read from this memory
system.mem_ctrls.bytes_read::cpu01.data          7296                       # Number of bytes read from this memory
system.mem_ctrls.bytes_read::cpu02.inst          1344                       # Number of bytes read from this memory
system.mem_ctrls.bytes_read::cpu02.data          6016                       # Number of bytes read from this memory
system.mem_ctrls.bytes_read::cpu03.inst          1792                       # Number of bytes read from this memory
system.mem_ctrls.bytes_read::cpu03.data          6592                       # Number of bytes read from this memory
system.mem_ctrls.bytes_read::cpu04.inst           704                       # Number of bytes read from this memory
system.mem_ctrls.bytes_read::cpu04.data          7040                       # Number of bytes read from this memory
system.mem_ctrls.bytes_read::cpu05.inst           256                       # Number of bytes read from this memory
system.mem_ctrls.bytes_read::cpu05.data          7232                       # Number of bytes read from this memory
system.mem_ctrls.bytes_read::cpu06.inst           832                       # Number of bytes read from this memory
system.mem_ctrls.bytes_read::cpu06.data          5632                       # Number of bytes read from this memory
system.mem_ctrls.bytes_read::cpu07.inst          2112                       # Number of bytes read from this memory
system.mem_ctrls.bytes_read::cpu07.data          5440                       # Number of bytes read from this memory
system.mem_ctrls.bytes_read::cpu08.inst          1088                       # Number of bytes read from this memory
system.mem_ctrls.bytes_read::cpu08.data          5888                       # Number of bytes read from this memory
system.mem_ctrls.bytes_read::cpu09.inst          3712                       # Number of bytes read from this memory
system.mem_ctrls.bytes_read::cpu09.data          5760                       # Number of bytes read from this memory
system.mem_ctrls.bytes_read::cpu10.inst          3264                       # Number of bytes read from this memory
system.mem_ctrls.bytes_read::cpu10.data          6080                       # Number of bytes read from this memory
system.mem_ctrls.bytes_read::cpu11.inst           576                       # Number of bytes read from this memory
system.mem_ctrls.bytes_read::cpu11.data          4736                       # Number of bytes read from this memory
system.mem_ctrls.bytes_read::cpu12.inst           448                       # Number of bytes read from this memory
system.mem_ctrls.bytes_read::cpu12.data          5568                       # Number of bytes read from this memory
system.mem_ctrls.bytes_read::cpu13.inst          1664                       # Number of bytes read from this memory
system.mem_ctrls.bytes_read::cpu13.data          6464                       # Number of bytes read from this memory
system.mem_ctrls.bytes_read::cpu14.inst           192                       # Number of bytes read from this memory
system.mem_ctrls.bytes_read::cpu14.data          5376                       # Number of bytes read from this memory
system.mem_ctrls.bytes_read::cpu15.inst           576                       # Number of bytes read from this memory
system.mem_ctrls.bytes_read::cpu15.data          6656                       # Number of bytes read from this memory
system.mem_ctrls.bytes_read::total             623936                       # Number of bytes read from this memory
system.mem_ctrls.bytes_inst_read::cpu00.inst       123328                       # Number of instructions bytes read from this memory
system.mem_ctrls.bytes_inst_read::cpu01.inst        11840                       # Number of instructions bytes read from this memory
system.mem_ctrls.bytes_inst_read::cpu02.inst         1344                       # Number of instructions bytes read from this memory
system.mem_ctrls.bytes_inst_read::cpu03.inst         1792                       # Number of instructions bytes read from this memory
system.mem_ctrls.bytes_inst_read::cpu04.inst          704                       # Number of instructions bytes read from this memory
system.mem_ctrls.bytes_inst_read::cpu05.inst          256                       # Number of instructions bytes read from this memory
system.mem_ctrls.bytes_inst_read::cpu06.inst          832                       # Number of instructions bytes read from this memory
system.mem_ctrls.bytes_inst_read::cpu07.inst         2112                       # Number of instructions bytes read from this memory
system.mem_ctrls.bytes_inst_read::cpu08.inst         1088                       # Number of instructions bytes read from this memory
system.mem_ctrls.bytes_inst_read::cpu09.inst         3712                       # Number of instructions bytes read from this memory
system.mem_ctrls.bytes_inst_read::cpu10.inst         3264                       # Number of instructions bytes read from this memory
system.mem_ctrls.bytes_inst_read::cpu11.inst          576                       # Number of instructions bytes read from this memory
system.mem_ctrls.bytes_inst_read::cpu12.inst          448                       # Number of instructions bytes read from this memory
system.mem_ctrls.bytes_inst_read::cpu13.inst         1664                       # Number of instructions bytes read from this memory
system.mem_ctrls.bytes_inst_read::cpu14.inst          192                       # Number of instructions bytes read from this memory
system.mem_ctrls.bytes_inst_read::cpu15.inst          576                       # Number of instructions bytes read from this memory
system.mem_ctrls.bytes_inst_read::total        153728                       # Number of instructions bytes read from this memory
system.mem_ctrls.bytes_written::writebacks        82688                       # Number of bytes written to this memory
system.mem_ctrls.bytes_written::total           82688                       # Number of bytes written to this memory
system.mem_ctrls.num_reads::cpu00.inst           1927                       # Number of read requests responded to by this memory
system.mem_ctrls.num_reads::cpu00.data           5913                       # Number of read requests responded to by this memory
system.mem_ctrls.num_reads::cpu01.inst            185                       # Number of read requests responded to by this memory
system.mem_ctrls.num_reads::cpu01.data            114                       # Number of read requests responded to by this memory
system.mem_ctrls.num_reads::cpu02.inst             21                       # Number of read requests responded to by this memory
system.mem_ctrls.num_reads::cpu02.data             94                       # Number of read requests responded to by this memory
system.mem_ctrls.num_reads::cpu03.inst             28                       # Number of read requests responded to by this memory
system.mem_ctrls.num_reads::cpu03.data            103                       # Number of read requests responded to by this memory
system.mem_ctrls.num_reads::cpu04.inst             11                       # Number of read requests responded to by this memory
system.mem_ctrls.num_reads::cpu04.data            110                       # Number of read requests responded to by this memory
system.mem_ctrls.num_reads::cpu05.inst              4                       # Number of read requests responded to by this memory
system.mem_ctrls.num_reads::cpu05.data            113                       # Number of read requests responded to by this memory
system.mem_ctrls.num_reads::cpu06.inst             13                       # Number of read requests responded to by this memory
system.mem_ctrls.num_reads::cpu06.data             88                       # Number of read requests responded to by this memory
system.mem_ctrls.num_reads::cpu07.inst             33                       # Number of read requests responded to by this memory
system.mem_ctrls.num_reads::cpu07.data             85                       # Number of read requests responded to by this memory
system.mem_ctrls.num_reads::cpu08.inst             17                       # Number of read requests responded to by this memory
system.mem_ctrls.num_reads::cpu08.data             92                       # Number of read requests responded to by this memory
system.mem_ctrls.num_reads::cpu09.inst             58                       # Number of read requests responded to by this memory
system.mem_ctrls.num_reads::cpu09.data             90                       # Number of read requests responded to by this memory
system.mem_ctrls.num_reads::cpu10.inst             51                       # Number of read requests responded to by this memory
system.mem_ctrls.num_reads::cpu10.data             95                       # Number of read requests responded to by this memory
system.mem_ctrls.num_reads::cpu11.inst              9                       # Number of read requests responded to by this memory
system.mem_ctrls.num_reads::cpu11.data             74                       # Number of read requests responded to by this memory
system.mem_ctrls.num_reads::cpu12.inst              7                       # Number of read requests responded to by this memory
system.mem_ctrls.num_reads::cpu12.data             87                       # Number of read requests responded to by this memory
system.mem_ctrls.num_reads::cpu13.inst             26                       # Number of read requests responded to by this memory
system.mem_ctrls.num_reads::cpu13.data            101                       # Number of read requests responded to by this memory
system.mem_ctrls.num_reads::cpu14.inst              3                       # Number of read requests responded to by this memory
system.mem_ctrls.num_reads::cpu14.data             84                       # Number of read requests responded to by this memory
system.mem_ctrls.num_reads::cpu15.inst              9                       # Number of read requests responded to by this memory
system.mem_ctrls.num_reads::cpu15.data            104                       # Number of read requests responded to by this memory
system.mem_ctrls.num_reads::total                9749                       # Number of read requests responded to by this memory
system.mem_ctrls.num_writes::writebacks          1292                       # Number of write requests responded to by this memory
system.mem_ctrls.num_writes::total               1292                       # Number of write requests responded to by this memory
system.mem_ctrls.bw_read::cpu00.inst         95392221                       # Total read bandwidth from this memory (bytes/s)
system.mem_ctrls.bw_read::cpu00.data        292711055                       # Total read bandwidth from this memory (bytes/s)
system.mem_ctrls.bw_read::cpu01.inst          9158049                       # Total read bandwidth from this memory (bytes/s)
system.mem_ctrls.bw_read::cpu01.data          5643338                       # Total read bandwidth from this memory (bytes/s)
system.mem_ctrls.bw_read::cpu02.inst          1039562                       # Total read bandwidth from this memory (bytes/s)
system.mem_ctrls.bw_read::cpu02.data          4653279                       # Total read bandwidth from this memory (bytes/s)
system.mem_ctrls.bw_read::cpu03.inst          1386083                       # Total read bandwidth from this memory (bytes/s)
system.mem_ctrls.bw_read::cpu03.data          5098806                       # Total read bandwidth from this memory (bytes/s)
system.mem_ctrls.bw_read::cpu04.inst           544533                       # Total read bandwidth from this memory (bytes/s)
system.mem_ctrls.bw_read::cpu04.data          5445327                       # Total read bandwidth from this memory (bytes/s)
system.mem_ctrls.bw_read::cpu05.inst           198012                       # Total read bandwidth from this memory (bytes/s)
system.mem_ctrls.bw_read::cpu05.data          5593835                       # Total read bandwidth from this memory (bytes/s)
system.mem_ctrls.bw_read::cpu06.inst           643539                       # Total read bandwidth from this memory (bytes/s)
system.mem_ctrls.bw_read::cpu06.data          4356261                       # Total read bandwidth from this memory (bytes/s)
system.mem_ctrls.bw_read::cpu07.inst          1633598                       # Total read bandwidth from this memory (bytes/s)
system.mem_ctrls.bw_read::cpu07.data          4207752                       # Total read bandwidth from this memory (bytes/s)
system.mem_ctrls.bw_read::cpu08.inst           841550                       # Total read bandwidth from this memory (bytes/s)
system.mem_ctrls.bw_read::cpu08.data          4554273                       # Total read bandwidth from this memory (bytes/s)
system.mem_ctrls.bw_read::cpu09.inst          2871172                       # Total read bandwidth from this memory (bytes/s)
system.mem_ctrls.bw_read::cpu09.data          4455267                       # Total read bandwidth from this memory (bytes/s)
system.mem_ctrls.bw_read::cpu10.inst          2524651                       # Total read bandwidth from this memory (bytes/s)
system.mem_ctrls.bw_read::cpu10.data          4702782                       # Total read bandwidth from this memory (bytes/s)
system.mem_ctrls.bw_read::cpu11.inst           445527                       # Total read bandwidth from this memory (bytes/s)
system.mem_ctrls.bw_read::cpu11.data          3663220                       # Total read bandwidth from this memory (bytes/s)
system.mem_ctrls.bw_read::cpu12.inst           346521                       # Total read bandwidth from this memory (bytes/s)
system.mem_ctrls.bw_read::cpu12.data          4306758                       # Total read bandwidth from this memory (bytes/s)
system.mem_ctrls.bw_read::cpu13.inst          1287077                       # Total read bandwidth from this memory (bytes/s)
system.mem_ctrls.bw_read::cpu13.data          4999800                       # Total read bandwidth from this memory (bytes/s)
system.mem_ctrls.bw_read::cpu14.inst           148509                       # Total read bandwidth from this memory (bytes/s)
system.mem_ctrls.bw_read::cpu14.data          4158249                       # Total read bandwidth from this memory (bytes/s)
system.mem_ctrls.bw_read::cpu15.inst           445527                       # Total read bandwidth from this memory (bytes/s)
system.mem_ctrls.bw_read::cpu15.data          5148309                       # Total read bandwidth from this memory (bytes/s)
system.mem_ctrls.bw_read::total             482604444                       # Total read bandwidth from this memory (bytes/s)
system.mem_ctrls.bw_inst_read::cpu00.inst     95392221                       # Instruction read bandwidth from this memory (bytes/s)
system.mem_ctrls.bw_inst_read::cpu01.inst      9158049                       # Instruction read bandwidth from this memory (bytes/s)
system.mem_ctrls.bw_inst_read::cpu02.inst      1039562                       # Instruction read bandwidth from this memory (bytes/s)
system.mem_ctrls.bw_inst_read::cpu03.inst      1386083                       # Instruction read bandwidth from this memory (bytes/s)
system.mem_ctrls.bw_inst_read::cpu04.inst       544533                       # Instruction read bandwidth from this memory (bytes/s)
system.mem_ctrls.bw_inst_read::cpu05.inst       198012                       # Instruction read bandwidth from this memory (bytes/s)
system.mem_ctrls.bw_inst_read::cpu06.inst       643539                       # Instruction read bandwidth from this memory (bytes/s)
system.mem_ctrls.bw_inst_read::cpu07.inst      1633598                       # Instruction read bandwidth from this memory (bytes/s)
system.mem_ctrls.bw_inst_read::cpu08.inst       841550                       # Instruction read bandwidth from this memory (bytes/s)
system.mem_ctrls.bw_inst_read::cpu09.inst      2871172                       # Instruction read bandwidth from this memory (bytes/s)
system.mem_ctrls.bw_inst_read::cpu10.inst      2524651                       # Instruction read bandwidth from this memory (bytes/s)
system.mem_ctrls.bw_inst_read::cpu11.inst       445527                       # Instruction read bandwidth from this memory (bytes/s)
system.mem_ctrls.bw_inst_read::cpu12.inst       346521                       # Instruction read bandwidth from this memory (bytes/s)
system.mem_ctrls.bw_inst_read::cpu13.inst      1287077                       # Instruction read bandwidth from this memory (bytes/s)
system.mem_ctrls.bw_inst_read::cpu14.inst       148509                       # Instruction read bandwidth from this memory (bytes/s)
system.mem_ctrls.bw_inst_read::cpu15.inst       445527                       # Instruction read bandwidth from this memory (bytes/s)
system.mem_ctrls.bw_inst_read::total        118906131                       # Instruction read bandwidth from this memory (bytes/s)
system.mem_ctrls.bw_write::writebacks        63957836                       # Write bandwidth from this memory (bytes/s)
system.mem_ctrls.bw_write::total             63957836                       # Write bandwidth from this memory (bytes/s)
system.mem_ctrls.bw_total::writebacks        63957836                       # Total bandwidth to/from this memory (bytes/s)
system.mem_ctrls.bw_total::cpu00.inst        95392221                       # Total bandwidth to/from this memory (bytes/s)
system.mem_ctrls.bw_total::cpu00.data       292711055                       # Total bandwidth to/from this memory (bytes/s)
system.mem_ctrls.bw_total::cpu01.inst         9158049                       # Total bandwidth to/from this memory (bytes/s)
system.mem_ctrls.bw_total::cpu01.data         5643338                       # Total bandwidth to/from this memory (bytes/s)
system.mem_ctrls.bw_total::cpu02.inst         1039562                       # Total bandwidth to/from this memory (bytes/s)
system.mem_ctrls.bw_total::cpu02.data         4653279                       # Total bandwidth to/from this memory (bytes/s)
system.mem_ctrls.bw_total::cpu03.inst         1386083                       # Total bandwidth to/from this memory (bytes/s)
system.mem_ctrls.bw_total::cpu03.data         5098806                       # Total bandwidth to/from this memory (bytes/s)
system.mem_ctrls.bw_total::cpu04.inst          544533                       # Total bandwidth to/from this memory (bytes/s)
system.mem_ctrls.bw_total::cpu04.data         5445327                       # Total bandwidth to/from this memory (bytes/s)
system.mem_ctrls.bw_total::cpu05.inst          198012                       # Total bandwidth to/from this memory (bytes/s)
system.mem_ctrls.bw_total::cpu05.data         5593835                       # Total bandwidth to/from this memory (bytes/s)
system.mem_ctrls.bw_total::cpu06.inst          643539                       # Total bandwidth to/from this memory (bytes/s)
system.mem_ctrls.bw_total::cpu06.data         4356261                       # Total bandwidth to/from this memory (bytes/s)
system.mem_ctrls.bw_total::cpu07.inst         1633598                       # Total bandwidth to/from this memory (bytes/s)
system.mem_ctrls.bw_total::cpu07.data         4207752                       # Total bandwidth to/from this memory (bytes/s)
system.mem_ctrls.bw_total::cpu08.inst          841550                       # Total bandwidth to/from this memory (bytes/s)
system.mem_ctrls.bw_total::cpu08.data         4554273                       # Total bandwidth to/from this memory (bytes/s)
system.mem_ctrls.bw_total::cpu09.inst         2871172                       # Total bandwidth to/from this memory (bytes/s)
system.mem_ctrls.bw_total::cpu09.data         4455267                       # Total bandwidth to/from this memory (bytes/s)
system.mem_ctrls.bw_total::cpu10.inst         2524651                       # Total bandwidth to/from this memory (bytes/s)
system.mem_ctrls.bw_total::cpu10.data         4702782                       # Total bandwidth to/from this memory (bytes/s)
system.mem_ctrls.bw_total::cpu11.inst          445527                       # Total bandwidth to/from this memory (bytes/s)
system.mem_ctrls.bw_total::cpu11.data         3663220                       # Total bandwidth to/from this memory (bytes/s)
system.mem_ctrls.bw_total::cpu12.inst          346521                       # Total bandwidth to/from this memory (bytes/s)
system.mem_ctrls.bw_total::cpu12.data         4306758                       # Total bandwidth to/from this memory (bytes/s)
system.mem_ctrls.bw_total::cpu13.inst         1287077                       # Total bandwidth to/from this memory (bytes/s)
system.mem_ctrls.bw_total::cpu13.data         4999800                       # Total bandwidth to/from this memory (bytes/s)
system.mem_ctrls.bw_total::cpu14.inst          148509                       # Total bandwidth to/from this memory (bytes/s)
system.mem_ctrls.bw_total::cpu14.data         4158249                       # Total bandwidth to/from this memory (bytes/s)
system.mem_ctrls.bw_total::cpu15.inst          445527                       # Total bandwidth to/from this memory (bytes/s)
system.mem_ctrls.bw_total::cpu15.data         5148309                       # Total bandwidth to/from this memory (bytes/s)
system.mem_ctrls.bw_total::total            546562279                       # Total bandwidth to/from this memory (bytes/s)
system.cpu00.branchPred.lookups                132828                       # Number of BP lookups
system.cpu00.branchPred.condPredicted           73979                       # Number of conditional branches predicted
system.cpu00.branchPred.condIncorrect            5703                       # Number of conditional branches incorrect
system.cpu00.branchPred.BTBLookups              88875                       # Number of BTB lookups
system.cpu00.branchPred.BTBHits                 66572                       # Number of BTB hits
system.cpu00.branchPred.BTBCorrect                  0                       # Number of correct BTB predictions (this stat may not work properly.
system.cpu00.branchPred.BTBHitPct           74.905204                       # BTB Hit Percentage
system.cpu00.branchPred.usedRAS                 26562                       # Number of times the RAS was used to get a target.
system.cpu00.branchPred.RASInCorrect               86                       # Number of incorrect RAS predictions.
system.cpu00.branchPred.indirectLookups          3655                       # Number of indirect predictor lookups.
system.cpu00.branchPred.indirectHits             2898                       # Number of indirect target hits.
system.cpu00.branchPred.indirectMisses            757                       # Number of indirect misses.
system.cpu00.branchPredindirectMispredicted          256                       # Number of mispredicted indirect branches.
system.cpu_voltage_domain.voltage                   1                       # Voltage in Volts
system.cpu_clk_domain.clock                      1159                       # Clock period in ticks
system.cpu00.dtb.fetch_hits                         0                       # ITB hits
system.cpu00.dtb.fetch_misses                       0                       # ITB misses
system.cpu00.dtb.fetch_acv                          0                       # ITB acv
system.cpu00.dtb.fetch_accesses                     0                       # ITB accesses
system.cpu00.dtb.read_hits                     182836                       # DTB read hits
system.cpu00.dtb.read_misses                      624                       # DTB read misses
system.cpu00.dtb.read_acv                           0                       # DTB read access violations
system.cpu00.dtb.read_accesses                 183460                       # DTB read accesses
system.cpu00.dtb.write_hits                    127761                       # DTB write hits
system.cpu00.dtb.write_misses                    1107                       # DTB write misses
system.cpu00.dtb.write_acv                          0                       # DTB write access violations
system.cpu00.dtb.write_accesses                128868                       # DTB write accesses
system.cpu00.dtb.data_hits                     310597                       # DTB hits
system.cpu00.dtb.data_misses                     1731                       # DTB misses
system.cpu00.dtb.data_acv                           0                       # DTB access violations
system.cpu00.dtb.data_accesses                 312328                       # DTB accesses
system.cpu00.itb.fetch_hits                    149557                       # ITB hits
system.cpu00.itb.fetch_misses                     154                       # ITB misses
system.cpu00.itb.fetch_acv                          0                       # ITB acv
system.cpu00.itb.fetch_accesses                149711                       # ITB accesses
system.cpu00.itb.read_hits                          0                       # DTB read hits
system.cpu00.itb.read_misses                        0                       # DTB read misses
system.cpu00.itb.read_acv                           0                       # DTB read access violations
system.cpu00.itb.read_accesses                      0                       # DTB read accesses
system.cpu00.itb.write_hits                         0                       # DTB write hits
system.cpu00.itb.write_misses                       0                       # DTB write misses
system.cpu00.itb.write_acv                          0                       # DTB write access violations
system.cpu00.itb.write_accesses                     0                       # DTB write accesses
system.cpu00.itb.data_hits                          0                       # DTB hits
system.cpu00.itb.data_misses                        0                       # DTB misses
system.cpu00.itb.data_acv                           0                       # DTB access violations
system.cpu00.itb.data_accesses                      0                       # DTB accesses
system.cpu00.workload.num_syscalls               2326                       # Number of system calls
system.cpu00.numCycles                        1043889                       # number of cpu cycles simulated
system.cpu00.numWorkItemsStarted                    0                       # number of work items this cpu started
system.cpu00.numWorkItemsCompleted                  0                       # number of work items this cpu completed
system.cpu00.fetch.icacheStallCycles            87962                       # Number of cycles fetch is stalled on an Icache miss
system.cpu00.fetch.Insts                      1191743                       # Number of instructions fetch has processed
system.cpu00.fetch.Branches                    132828                       # Number of branches that fetch encountered
system.cpu00.fetch.predictedBranches            96032                       # Number of branches that fetch has predicted taken
system.cpu00.fetch.Cycles                      731674                       # Number of cycles fetch has run and was not squashing or blocked
system.cpu00.fetch.SquashCycles                 12776                       # Number of cycles fetch has spent squashing
system.cpu00.fetch.MiscStallCycles               1025                       # Number of cycles fetch has spent waiting on interrupts, or bad addresses, or out of MSHRs
system.cpu00.fetch.PendingTrapStallCycles         6383                       # Number of stall cycles due to pending traps
system.cpu00.fetch.IcacheWaitRetryStallCycles          797                       # Number of stall cycles due to full MSHR
system.cpu00.fetch.CacheLines                  149557                       # Number of cache lines fetched
system.cpu00.fetch.IcacheSquashes                2723                       # Number of outstanding Icache misses that were squashed
system.cpu00.fetch.rateDist::samples           834229                       # Number of instructions fetched each cycle (Total)
system.cpu00.fetch.rateDist::mean            1.428556                       # Number of instructions fetched each cycle (Total)
system.cpu00.fetch.rateDist::stdev           2.703546                       # Number of instructions fetched each cycle (Total)
system.cpu00.fetch.rateDist::underflows             0      0.00%      0.00% # Number of instructions fetched each cycle (Total)
system.cpu00.fetch.rateDist::0                 615855     73.82%     73.82% # Number of instructions fetched each cycle (Total)
system.cpu00.fetch.rateDist::1                  16491      1.98%     75.80% # Number of instructions fetched each cycle (Total)
system.cpu00.fetch.rateDist::2                  17655      2.12%     77.92% # Number of instructions fetched each cycle (Total)
system.cpu00.fetch.rateDist::3                  17063      2.05%     79.96% # Number of instructions fetched each cycle (Total)
system.cpu00.fetch.rateDist::4                  38095      4.57%     84.53% # Number of instructions fetched each cycle (Total)
system.cpu00.fetch.rateDist::5                  15741      1.89%     86.42% # Number of instructions fetched each cycle (Total)
system.cpu00.fetch.rateDist::6                  18829      2.26%     88.67% # Number of instructions fetched each cycle (Total)
system.cpu00.fetch.rateDist::7                  11306      1.36%     90.03% # Number of instructions fetched each cycle (Total)
system.cpu00.fetch.rateDist::8                  83194      9.97%    100.00% # Number of instructions fetched each cycle (Total)
system.cpu00.fetch.rateDist::overflows              0      0.00%    100.00% # Number of instructions fetched each cycle (Total)
system.cpu00.fetch.rateDist::min_value              0                       # Number of instructions fetched each cycle (Total)
system.cpu00.fetch.rateDist::max_value              8                       # Number of instructions fetched each cycle (Total)
system.cpu00.fetch.rateDist::total             834229                       # Number of instructions fetched each cycle (Total)
system.cpu00.fetch.branchRate                0.127243                       # Number of branch fetches per cycle
system.cpu00.fetch.rate                      1.141638                       # Number of inst fetches per cycle
system.cpu00.decode.IdleCycles                  94646                       # Number of cycles decode is idle
system.cpu00.decode.BlockedCycles              571875                       # Number of cycles decode is blocked
system.cpu00.decode.RunCycles                  129486                       # Number of cycles decode is running
system.cpu00.decode.UnblockCycles               33562                       # Number of cycles decode is unblocking
system.cpu00.decode.SquashCycles                 4660                       # Number of cycles decode is squashing
system.cpu00.decode.BranchResolved              26499                       # Number of times decode resolved a branch
system.cpu00.decode.BranchMispred                1763                       # Number of times decode detected a branch misprediction
system.cpu00.decode.DecodedInsts              1126369                       # Number of instructions handled by decode
system.cpu00.decode.SquashedInsts                7322                       # Number of squashed instructions handled by decode
system.cpu00.rename.SquashCycles                 4660                       # Number of cycles rename is squashing
system.cpu00.rename.IdleCycles                 110617                       # Number of cycles rename is idle
system.cpu00.rename.BlockCycles                 95705                       # Number of cycles rename is blocking
system.cpu00.rename.serializeStallCycles       221851                       # count of cycles rename stalled for serializing inst
system.cpu00.rename.RunCycles                  147179                       # Number of cycles rename is running
system.cpu00.rename.UnblockCycles              254217                       # Number of cycles rename is unblocking
system.cpu00.rename.RenamedInsts              1107013                       # Number of instructions processed by rename
system.cpu00.rename.ROBFullEvents                2900                       # Number of times rename has blocked due to ROB full
system.cpu00.rename.IQFullEvents                22991                       # Number of times rename has blocked due to IQ full
system.cpu00.rename.LQFullEvents                 2559                       # Number of times rename has blocked due to LQ full
system.cpu00.rename.SQFullEvents               218247                       # Number of times rename has blocked due to SQ full
system.cpu00.rename.RenamedOperands            758884                       # Number of destination operands rename has renamed
system.cpu00.rename.RenameLookups             1370621                       # Number of register rename lookups that rename has made
system.cpu00.rename.int_rename_lookups        1212379                       # Number of integer rename lookups
system.cpu00.rename.fp_rename_lookups          155955                       # Number of floating rename lookups
system.cpu00.rename.CommittedMaps              668931                       # Number of HB maps that are committed
system.cpu00.rename.UndoneMaps                  89953                       # Number of HB maps that are undone due to squashing
system.cpu00.rename.serializingInsts             4031                       # count of serializing insts renamed
system.cpu00.rename.tempSerializingInsts         1661                       # count of temporary serializing insts renamed
system.cpu00.rename.skidInsts                  150136                       # count of insts added to the skid buffer
system.cpu00.memDep0.insertedLoads             180005                       # Number of loads inserted to the mem dependence unit.
system.cpu00.memDep0.insertedStores            135360                       # Number of stores inserted to the mem dependence unit.
system.cpu00.memDep0.conflictingLoads           32320                       # Number of conflicting loads.
system.cpu00.memDep0.conflictingStores          12516                       # Number of conflicting stores.
system.cpu00.iq.iqInstsAdded                   969821                       # Number of instructions added to the IQ (excludes non-spec)
system.cpu00.iq.iqNonSpecInstsAdded              2744                       # Number of non-speculative instructions added to the IQ
system.cpu00.iq.iqInstsIssued                  954349                       # Number of instructions issued
system.cpu00.iq.iqSquashedInstsIssued            1943                       # Number of squashed instructions issued
system.cpu00.iq.iqSquashedInstsExamined        102536                       # Number of squashed instructions iterated over during squash; mainly for profiling
system.cpu00.iq.iqSquashedOperandsExamined        52179                       # Number of squashed operands that are examined and possibly removed from graph
system.cpu00.iq.iqSquashedNonSpecRemoved          367                       # Number of squashed non-spec instructions that were removed
system.cpu00.iq.issued_per_cycle::samples       834229                       # Number of insts issued each cycle
system.cpu00.iq.issued_per_cycle::mean       1.143989                       # Number of insts issued each cycle
system.cpu00.iq.issued_per_cycle::stdev      1.916408                       # Number of insts issued each cycle
system.cpu00.iq.issued_per_cycle::underflows            0      0.00%      0.00% # Number of insts issued each cycle
system.cpu00.iq.issued_per_cycle::0            533788     63.99%     63.99% # Number of insts issued each cycle
system.cpu00.iq.issued_per_cycle::1             75239      9.02%     73.00% # Number of insts issued each cycle
system.cpu00.iq.issued_per_cycle::2             61431      7.36%     80.37% # Number of insts issued each cycle
system.cpu00.iq.issued_per_cycle::3             45549      5.46%     85.83% # Number of insts issued each cycle
system.cpu00.iq.issued_per_cycle::4             43814      5.25%     91.08% # Number of insts issued each cycle
system.cpu00.iq.issued_per_cycle::5             28607      3.43%     94.51% # Number of insts issued each cycle
system.cpu00.iq.issued_per_cycle::6             26835      3.22%     97.73% # Number of insts issued each cycle
system.cpu00.iq.issued_per_cycle::7             11428      1.37%     99.10% # Number of insts issued each cycle
system.cpu00.iq.issued_per_cycle::8              7538      0.90%    100.00% # Number of insts issued each cycle
system.cpu00.iq.issued_per_cycle::overflows            0      0.00%    100.00% # Number of insts issued each cycle
system.cpu00.iq.issued_per_cycle::min_value            0                       # Number of insts issued each cycle
system.cpu00.iq.issued_per_cycle::max_value            8                       # Number of insts issued each cycle
system.cpu00.iq.issued_per_cycle::total        834229                       # Number of insts issued each cycle
system.cpu00.iq.fu_full::No_OpClass                 0      0.00%      0.00% # attempts to use FU when none available
system.cpu00.iq.fu_full::IntAlu                  4925     15.78%     15.78% # attempts to use FU when none available
system.cpu00.iq.fu_full::IntMult                 4097     13.13%     28.91% # attempts to use FU when none available
system.cpu00.iq.fu_full::IntDiv                     0      0.00%     28.91% # attempts to use FU when none available
system.cpu00.iq.fu_full::FloatAdd                  89      0.29%     29.19% # attempts to use FU when none available
system.cpu00.iq.fu_full::FloatCmp                   0      0.00%     29.19% # attempts to use FU when none available
system.cpu00.iq.fu_full::FloatCvt                   0      0.00%     29.19% # attempts to use FU when none available
system.cpu00.iq.fu_full::FloatMult               5827     18.67%     47.86% # attempts to use FU when none available
system.cpu00.iq.fu_full::FloatDiv                   0      0.00%     47.86% # attempts to use FU when none available
system.cpu00.iq.fu_full::FloatSqrt                  0      0.00%     47.86% # attempts to use FU when none available
system.cpu00.iq.fu_full::SimdAdd                    0      0.00%     47.86% # attempts to use FU when none available
system.cpu00.iq.fu_full::SimdAddAcc                 0      0.00%     47.86% # attempts to use FU when none available
system.cpu00.iq.fu_full::SimdAlu                    0      0.00%     47.86% # attempts to use FU when none available
system.cpu00.iq.fu_full::SimdCmp                    0      0.00%     47.86% # attempts to use FU when none available
system.cpu00.iq.fu_full::SimdCvt                    0      0.00%     47.86% # attempts to use FU when none available
system.cpu00.iq.fu_full::SimdMisc                   0      0.00%     47.86% # attempts to use FU when none available
system.cpu00.iq.fu_full::SimdMult                   0      0.00%     47.86% # attempts to use FU when none available
system.cpu00.iq.fu_full::SimdMultAcc                0      0.00%     47.86% # attempts to use FU when none available
system.cpu00.iq.fu_full::SimdShift                  0      0.00%     47.86% # attempts to use FU when none available
system.cpu00.iq.fu_full::SimdShiftAcc               0      0.00%     47.86% # attempts to use FU when none available
system.cpu00.iq.fu_full::SimdSqrt                   0      0.00%     47.86% # attempts to use FU when none available
system.cpu00.iq.fu_full::SimdFloatAdd               0      0.00%     47.86% # attempts to use FU when none available
system.cpu00.iq.fu_full::SimdFloatAlu               0      0.00%     47.86% # attempts to use FU when none available
system.cpu00.iq.fu_full::SimdFloatCmp               0      0.00%     47.86% # attempts to use FU when none available
system.cpu00.iq.fu_full::SimdFloatCvt               0      0.00%     47.86% # attempts to use FU when none available
system.cpu00.iq.fu_full::SimdFloatDiv               0      0.00%     47.86% # attempts to use FU when none available
system.cpu00.iq.fu_full::SimdFloatMisc              0      0.00%     47.86% # attempts to use FU when none available
system.cpu00.iq.fu_full::SimdFloatMult              0      0.00%     47.86% # attempts to use FU when none available
system.cpu00.iq.fu_full::SimdFloatMultAcc            0      0.00%     47.86% # attempts to use FU when none available
system.cpu00.iq.fu_full::SimdFloatSqrt              0      0.00%     47.86% # attempts to use FU when none available
system.cpu00.iq.fu_full::MemRead                 9986     32.00%     79.86% # attempts to use FU when none available
system.cpu00.iq.fu_full::MemWrite                6286     20.14%    100.00% # attempts to use FU when none available
system.cpu00.iq.fu_full::IprAccess                  0      0.00%    100.00% # attempts to use FU when none available
system.cpu00.iq.fu_full::InstPrefetch               0      0.00%    100.00% # attempts to use FU when none available
system.cpu00.iq.FU_type_0::No_OpClass               0      0.00%      0.00% # Type of FU issued
system.cpu00.iq.FU_type_0::IntAlu              551551     57.79%     57.79% # Type of FU issued
system.cpu00.iq.FU_type_0::IntMult              12793      1.34%     59.13% # Type of FU issued
system.cpu00.iq.FU_type_0::IntDiv                   0      0.00%     59.13% # Type of FU issued
system.cpu00.iq.FU_type_0::FloatAdd             35722      3.74%     62.88% # Type of FU issued
system.cpu00.iq.FU_type_0::FloatCmp                 8      0.00%     62.88% # Type of FU issued
system.cpu00.iq.FU_type_0::FloatCvt                 0      0.00%     62.88% # Type of FU issued
system.cpu00.iq.FU_type_0::FloatMult            37109      3.89%     66.77% # Type of FU issued
system.cpu00.iq.FU_type_0::FloatDiv                15      0.00%     66.77% # Type of FU issued
system.cpu00.iq.FU_type_0::FloatSqrt                0      0.00%     66.77% # Type of FU issued
system.cpu00.iq.FU_type_0::SimdAdd                  0      0.00%     66.77% # Type of FU issued
system.cpu00.iq.FU_type_0::SimdAddAcc               0      0.00%     66.77% # Type of FU issued
system.cpu00.iq.FU_type_0::SimdAlu                  0      0.00%     66.77% # Type of FU issued
system.cpu00.iq.FU_type_0::SimdCmp                  0      0.00%     66.77% # Type of FU issued
system.cpu00.iq.FU_type_0::SimdCvt                  0      0.00%     66.77% # Type of FU issued
system.cpu00.iq.FU_type_0::SimdMisc                 0      0.00%     66.77% # Type of FU issued
system.cpu00.iq.FU_type_0::SimdMult                 0      0.00%     66.77% # Type of FU issued
system.cpu00.iq.FU_type_0::SimdMultAcc              0      0.00%     66.77% # Type of FU issued
system.cpu00.iq.FU_type_0::SimdShift                0      0.00%     66.77% # Type of FU issued
system.cpu00.iq.FU_type_0::SimdShiftAcc             0      0.00%     66.77% # Type of FU issued
system.cpu00.iq.FU_type_0::SimdSqrt                 0      0.00%     66.77% # Type of FU issued
system.cpu00.iq.FU_type_0::SimdFloatAdd             0      0.00%     66.77% # Type of FU issued
system.cpu00.iq.FU_type_0::SimdFloatAlu             0      0.00%     66.77% # Type of FU issued
system.cpu00.iq.FU_type_0::SimdFloatCmp             0      0.00%     66.77% # Type of FU issued
system.cpu00.iq.FU_type_0::SimdFloatCvt             0      0.00%     66.77% # Type of FU issued
system.cpu00.iq.FU_type_0::SimdFloatDiv             0      0.00%     66.77% # Type of FU issued
system.cpu00.iq.FU_type_0::SimdFloatMisc            0      0.00%     66.77% # Type of FU issued
system.cpu00.iq.FU_type_0::SimdFloatMult            0      0.00%     66.77% # Type of FU issued
system.cpu00.iq.FU_type_0::SimdFloatMultAcc            0      0.00%     66.77% # Type of FU issued
system.cpu00.iq.FU_type_0::SimdFloatSqrt            0      0.00%     66.77% # Type of FU issued
system.cpu00.iq.FU_type_0::MemRead             186710     19.56%     86.33% # Type of FU issued
system.cpu00.iq.FU_type_0::MemWrite            130441     13.67%    100.00% # Type of FU issued
system.cpu00.iq.FU_type_0::IprAccess                0      0.00%    100.00% # Type of FU issued
system.cpu00.iq.FU_type_0::InstPrefetch             0      0.00%    100.00% # Type of FU issued
system.cpu00.iq.FU_type_0::total               954349                       # Type of FU issued
system.cpu00.iq.rate                         0.914225                       # Inst issue rate
system.cpu00.iq.fu_busy_cnt                     31210                       # FU busy when requested
system.cpu00.iq.fu_busy_rate                 0.032703                       # FU busy rate (busy events/executed inst)
system.cpu00.iq.int_inst_queue_reads          2532300                       # Number of integer instruction queue reads
system.cpu00.iq.int_inst_queue_writes          952061                       # Number of integer instruction queue writes
system.cpu00.iq.int_inst_queue_wakeup_accesses       814241                       # Number of integer instruction queue wakeup accesses
system.cpu00.iq.fp_inst_queue_reads            243780                       # Number of floating instruction queue reads
system.cpu00.iq.fp_inst_queue_writes           123462                       # Number of floating instruction queue writes
system.cpu00.iq.fp_inst_queue_wakeup_accesses       117013                       # Number of floating instruction queue wakeup accesses
system.cpu00.iq.int_alu_accesses               860348                       # Number of integer alu accesses
system.cpu00.iq.fp_alu_accesses                125211                       # Number of floating point alu accesses
system.cpu00.iew.lsq.thread0.forwLoads          21298                       # Number of loads that had data forwarded from stores
system.cpu00.iew.lsq.thread0.invAddrLoads            0                       # Number of loads ignored due to an invalid address
system.cpu00.iew.lsq.thread0.squashedLoads        19006                       # Number of loads squashed
system.cpu00.iew.lsq.thread0.ignoredResponses           83                       # Number of memory responses ignored because the instruction is squashed
system.cpu00.iew.lsq.thread0.memOrderViolation          433                       # Number of memory ordering violations
system.cpu00.iew.lsq.thread0.squashedStores        15832                       # Number of stores squashed
system.cpu00.iew.lsq.thread0.invAddrSwpfs            0                       # Number of software prefetches ignored due to an invalid address
system.cpu00.iew.lsq.thread0.blockedLoads            0                       # Number of blocked loads due to partial load-store forwarding
system.cpu00.iew.lsq.thread0.rescheduledLoads          213                       # Number of loads that were rescheduled
system.cpu00.iew.lsq.thread0.cacheBlocked        11743                       # Number of times an access to memory failed due to the cache being blocked
system.cpu00.iew.iewIdleCycles                      0                       # Number of cycles IEW is idle
system.cpu00.iew.iewSquashCycles                 4660                       # Number of cycles IEW is squashing
system.cpu00.iew.iewBlockCycles                 23819                       # Number of cycles IEW is blocking
system.cpu00.iew.iewUnblockCycles               62601                       # Number of cycles IEW is unblocking
system.cpu00.iew.iewDispatchedInsts           1080313                       # Number of instructions dispatched to IQ
system.cpu00.iew.iewDispSquashedInsts            1426                       # Number of squashed instructions skipped by dispatch
system.cpu00.iew.iewDispLoadInsts              180005                       # Number of dispatched load instructions
system.cpu00.iew.iewDispStoreInsts             135360                       # Number of dispatched store instructions
system.cpu00.iew.iewDispNonSpecInsts             1575                       # Number of dispatched non-speculative instructions
system.cpu00.iew.iewIQFullEvents                  166                       # Number of times the IQ has become full, causing a stall
system.cpu00.iew.iewLSQFullEvents               62325                       # Number of times the LSQ has become full, causing a stall
system.cpu00.iew.memOrderViolationEvents          433                       # Number of memory order violations
system.cpu00.iew.predictedTakenIncorrect         1600                       # Number of branches that were predicted taken incorrectly
system.cpu00.iew.predictedNotTakenIncorrect         3117                       # Number of branches that were predicted not taken incorrectly
system.cpu00.iew.branchMispredicts               4717                       # Number of branch mispredicts detected at execute
system.cpu00.iew.iewExecutedInsts              946816                       # Number of executed instructions
system.cpu00.iew.iewExecLoadInsts              183479                       # Number of load instructions executed
system.cpu00.iew.iewExecSquashedInsts            7533                       # Number of squashed instructions skipped in execute
system.cpu00.iew.exec_swp                           0                       # number of swp insts executed
system.cpu00.iew.exec_nop                      107748                       # number of nop insts executed
system.cpu00.iew.exec_refs                     312355                       # number of memory reference insts executed
system.cpu00.iew.exec_branches                 110503                       # Number of branches executed
system.cpu00.iew.exec_stores                   128876                       # Number of stores executed
system.cpu00.iew.exec_rate                   0.907008                       # Inst execution rate
system.cpu00.iew.wb_sent                       934809                       # cumulative count of insts sent to commit
system.cpu00.iew.wb_count                      931254                       # cumulative count of insts written-back
system.cpu00.iew.wb_producers                  545532                       # num instructions producing a value
system.cpu00.iew.wb_consumers                  777286                       # num instructions consuming a value
system.cpu00.iew.wb_rate                     0.892101                       # insts written-back per cycle
system.cpu00.iew.wb_fanout                   0.701842                       # average fanout of values written-back
system.cpu00.commit.commitSquashedInsts        107211                       # The number of squashed insts skipped by commit
system.cpu00.commit.commitNonSpecStalls          2377                       # The number of times commit has been forced to stall to communicate backwards
system.cpu00.commit.branchMispredicts            3975                       # The number of times a branch was mispredicted
system.cpu00.commit.committed_per_cycle::samples       817349                       # Number of insts commited each cycle
system.cpu00.commit.committed_per_cycle::mean     1.185150                       # Number of insts commited each cycle
system.cpu00.commit.committed_per_cycle::stdev     2.289891                       # Number of insts commited each cycle
system.cpu00.commit.committed_per_cycle::underflows            0      0.00%      0.00% # Number of insts commited each cycle
system.cpu00.commit.committed_per_cycle::0       569025     69.62%     69.62% # Number of insts commited each cycle
system.cpu00.commit.committed_per_cycle::1        51627      6.32%     75.93% # Number of insts commited each cycle
system.cpu00.commit.committed_per_cycle::2        51286      6.27%     82.21% # Number of insts commited each cycle
system.cpu00.commit.committed_per_cycle::3        29953      3.66%     85.87% # Number of insts commited each cycle
system.cpu00.commit.committed_per_cycle::4        35392      4.33%     90.20% # Number of insts commited each cycle
system.cpu00.commit.committed_per_cycle::5         8901      1.09%     91.29% # Number of insts commited each cycle
system.cpu00.commit.committed_per_cycle::6        12861      1.57%     92.87% # Number of insts commited each cycle
system.cpu00.commit.committed_per_cycle::7         5048      0.62%     93.48% # Number of insts commited each cycle
system.cpu00.commit.committed_per_cycle::8        53256      6.52%    100.00% # Number of insts commited each cycle
system.cpu00.commit.committed_per_cycle::overflows            0      0.00%    100.00% # Number of insts commited each cycle
system.cpu00.commit.committed_per_cycle::min_value            0                       # Number of insts commited each cycle
system.cpu00.commit.committed_per_cycle::max_value            8                       # Number of insts commited each cycle
system.cpu00.commit.committed_per_cycle::total       817349                       # Number of insts commited each cycle
system.cpu00.commit.committedInsts             968681                       # Number of instructions committed
system.cpu00.commit.committedOps               968681                       # Number of ops (including micro ops) committed
system.cpu00.commit.swp_count                       0                       # Number of s/w prefetches committed
system.cpu00.commit.refs                       280527                       # Number of memory references committed
system.cpu00.commit.loads                      160999                       # Number of loads committed
system.cpu00.commit.membars                      1038                       # Number of memory barriers committed
system.cpu00.commit.branches                   100151                       # Number of branches committed
system.cpu00.commit.fp_insts                   116058                       # Number of committed floating point instructions.
system.cpu00.commit.int_insts                  792154                       # Number of committed integer instructions.
system.cpu00.commit.function_calls              22224                       # Number of function calls committed.
system.cpu00.commit.op_class_0::No_OpClass        98653     10.18%     10.18% # Class of committed instruction
system.cpu00.commit.op_class_0::IntAlu         503336     51.96%     62.15% # Class of committed instruction
system.cpu00.commit.op_class_0::IntMult         12689      1.31%     63.46% # Class of committed instruction
system.cpu00.commit.op_class_0::IntDiv              0      0.00%     63.46% # Class of committed instruction
system.cpu00.commit.op_class_0::FloatAdd        35480      3.66%     67.12% # Class of committed instruction
system.cpu00.commit.op_class_0::FloatCmp            8      0.00%     67.12% # Class of committed instruction
system.cpu00.commit.op_class_0::FloatCvt            0      0.00%     67.12% # Class of committed instruction
system.cpu00.commit.op_class_0::FloatMult        36935      3.81%     70.93% # Class of committed instruction
system.cpu00.commit.op_class_0::FloatDiv           14      0.00%     70.93% # Class of committed instruction
system.cpu00.commit.op_class_0::FloatSqrt            0      0.00%     70.93% # Class of committed instruction
system.cpu00.commit.op_class_0::SimdAdd             0      0.00%     70.93% # Class of committed instruction
system.cpu00.commit.op_class_0::SimdAddAcc            0      0.00%     70.93% # Class of committed instruction
system.cpu00.commit.op_class_0::SimdAlu             0      0.00%     70.93% # Class of committed instruction
system.cpu00.commit.op_class_0::SimdCmp             0      0.00%     70.93% # Class of committed instruction
system.cpu00.commit.op_class_0::SimdCvt             0      0.00%     70.93% # Class of committed instruction
system.cpu00.commit.op_class_0::SimdMisc            0      0.00%     70.93% # Class of committed instruction
system.cpu00.commit.op_class_0::SimdMult            0      0.00%     70.93% # Class of committed instruction
system.cpu00.commit.op_class_0::SimdMultAcc            0      0.00%     70.93% # Class of committed instruction
system.cpu00.commit.op_class_0::SimdShift            0      0.00%     70.93% # Class of committed instruction
system.cpu00.commit.op_class_0::SimdShiftAcc            0      0.00%     70.93% # Class of committed instruction
system.cpu00.commit.op_class_0::SimdSqrt            0      0.00%     70.93% # Class of committed instruction
system.cpu00.commit.op_class_0::SimdFloatAdd            0      0.00%     70.93% # Class of committed instruction
system.cpu00.commit.op_class_0::SimdFloatAlu            0      0.00%     70.93% # Class of committed instruction
system.cpu00.commit.op_class_0::SimdFloatCmp            0      0.00%     70.93% # Class of committed instruction
system.cpu00.commit.op_class_0::SimdFloatCvt            0      0.00%     70.93% # Class of committed instruction
system.cpu00.commit.op_class_0::SimdFloatDiv            0      0.00%     70.93% # Class of committed instruction
system.cpu00.commit.op_class_0::SimdFloatMisc            0      0.00%     70.93% # Class of committed instruction
system.cpu00.commit.op_class_0::SimdFloatMult            0      0.00%     70.93% # Class of committed instruction
system.cpu00.commit.op_class_0::SimdFloatMultAcc            0      0.00%     70.93% # Class of committed instruction
system.cpu00.commit.op_class_0::SimdFloatSqrt            0      0.00%     70.93% # Class of committed instruction
system.cpu00.commit.op_class_0::MemRead        162037     16.73%     87.66% # Class of committed instruction
system.cpu00.commit.op_class_0::MemWrite       119529     12.34%    100.00% # Class of committed instruction
system.cpu00.commit.op_class_0::IprAccess            0      0.00%    100.00% # Class of committed instruction
system.cpu00.commit.op_class_0::InstPrefetch            0      0.00%    100.00% # Class of committed instruction
system.cpu00.commit.op_class_0::total          968681                       # Class of committed instruction
system.cpu00.commit.bw_lim_events               53256                       # number cycles where commit BW limit reached
system.cpu00.rob.rob_reads                    1835994                       # The number of ROB reads
system.cpu00.rob.rob_writes                   2168781                       # The number of ROB writes
system.cpu00.timesIdled                          1453                       # Number of times that the entire CPU went into an idle state and unscheduled itself
system.cpu00.idleCycles                        209660                       # Total number of cycles that the CPU has spent unscheduled due to idling
system.cpu00.quiesceCycles                      71601                       # Total number of cycles that CPU has spent quiesced or waiting for an interrupt
system.cpu00.committedInsts                    870028                       # Number of Instructions Simulated
system.cpu00.committedOps                      870028                       # Number of Ops (including micro ops) Simulated
system.cpu00.cpi                             1.199834                       # CPI: Cycles Per Instruction
system.cpu00.cpi_total                       1.199834                       # CPI: Total CPI of All Threads
system.cpu00.ipc                             0.833449                       # IPC: Instructions Per Cycle
system.cpu00.ipc_total                       0.833449                       # IPC: Total IPC of All Threads
system.cpu00.int_regfile_reads                1143210                       # number of integer regfile reads
system.cpu00.int_regfile_writes                613198                       # number of integer regfile writes
system.cpu00.fp_regfile_reads                  151844                       # number of floating regfile reads
system.cpu00.fp_regfile_writes                 102908                       # number of floating regfile writes
system.cpu00.misc_regfile_reads                  4743                       # number of misc regfile reads
system.cpu00.misc_regfile_writes                 2252                       # number of misc regfile writes
system.cpu00.dcache.tags.replacements           14900                       # number of replacements
system.cpu00.dcache.tags.tagsinuse          63.045754                       # Cycle average of tags in use
system.cpu00.dcache.tags.total_refs            224231                       # Total number of references to valid blocks.
system.cpu00.dcache.tags.sampled_refs           14964                       # Sample count of references to valid blocks.
system.cpu00.dcache.tags.avg_refs           14.984697                       # Average number of references to valid blocks.
system.cpu00.dcache.tags.warmup_cycle        26832009                       # Cycle when the warmup percentage was hit.
system.cpu00.dcache.tags.occ_blocks::cpu00.data    63.045754                       # Average occupied blocks per requestor
system.cpu00.dcache.tags.occ_percent::cpu00.data     0.985090                       # Average percentage of cache occupancy
system.cpu00.dcache.tags.occ_percent::total     0.985090                       # Average percentage of cache occupancy
system.cpu00.dcache.tags.occ_task_id_blocks::1024           64                       # Occupied blocks per task id
system.cpu00.dcache.tags.age_task_id_blocks_1024::0           58                       # Occupied blocks per task id
system.cpu00.dcache.tags.age_task_id_blocks_1024::1            6                       # Occupied blocks per task id
system.cpu00.dcache.tags.occ_task_id_percent::1024            1                       # Percentage of cache occupancy per task id
system.cpu00.dcache.tags.tag_accesses         1100454                       # Number of tag accesses
system.cpu00.dcache.tags.data_accesses        1100454                       # Number of data accesses
system.cpu00.dcache.ReadReq_hits::cpu00.data       139154                       # number of ReadReq hits
system.cpu00.dcache.ReadReq_hits::total        139154                       # number of ReadReq hits
system.cpu00.dcache.WriteReq_hits::cpu00.data        82978                       # number of WriteReq hits
system.cpu00.dcache.WriteReq_hits::total        82978                       # number of WriteReq hits
system.cpu00.dcache.LoadLockedReq_hits::cpu00.data          875                       # number of LoadLockedReq hits
system.cpu00.dcache.LoadLockedReq_hits::total          875                       # number of LoadLockedReq hits
system.cpu00.dcache.StoreCondReq_hits::cpu00.data         1104                       # number of StoreCondReq hits
system.cpu00.dcache.StoreCondReq_hits::total         1104                       # number of StoreCondReq hits
system.cpu00.dcache.demand_hits::cpu00.data       222132                       # number of demand (read+write) hits
system.cpu00.dcache.demand_hits::total         222132                       # number of demand (read+write) hits
system.cpu00.dcache.overall_hits::cpu00.data       222132                       # number of overall hits
system.cpu00.dcache.overall_hits::total        222132                       # number of overall hits
system.cpu00.dcache.ReadReq_misses::cpu00.data        11471                       # number of ReadReq misses
system.cpu00.dcache.ReadReq_misses::total        11471                       # number of ReadReq misses
system.cpu00.dcache.WriteReq_misses::cpu00.data        35427                       # number of WriteReq misses
system.cpu00.dcache.WriteReq_misses::total        35427                       # number of WriteReq misses
system.cpu00.dcache.LoadLockedReq_misses::cpu00.data          315                       # number of LoadLockedReq misses
system.cpu00.dcache.LoadLockedReq_misses::total          315                       # number of LoadLockedReq misses
system.cpu00.dcache.StoreCondReq_misses::cpu00.data           19                       # number of StoreCondReq misses
system.cpu00.dcache.StoreCondReq_misses::total           19                       # number of StoreCondReq misses
system.cpu00.dcache.demand_misses::cpu00.data        46898                       # number of demand (read+write) misses
system.cpu00.dcache.demand_misses::total        46898                       # number of demand (read+write) misses
system.cpu00.dcache.overall_misses::cpu00.data        46898                       # number of overall misses
system.cpu00.dcache.overall_misses::total        46898                       # number of overall misses
system.cpu00.dcache.ReadReq_miss_latency::cpu00.data    473734296                       # number of ReadReq miss cycles
system.cpu00.dcache.ReadReq_miss_latency::total    473734296                       # number of ReadReq miss cycles
system.cpu00.dcache.WriteReq_miss_latency::cpu00.data   5506147551                       # number of WriteReq miss cycles
system.cpu00.dcache.WriteReq_miss_latency::total   5506147551                       # number of WriteReq miss cycles
system.cpu00.dcache.LoadLockedReq_miss_latency::cpu00.data      3493226                       # number of LoadLockedReq miss cycles
system.cpu00.dcache.LoadLockedReq_miss_latency::total      3493226                       # number of LoadLockedReq miss cycles
system.cpu00.dcache.StoreCondReq_miss_latency::cpu00.data       560956                       # number of StoreCondReq miss cycles
system.cpu00.dcache.StoreCondReq_miss_latency::total       560956                       # number of StoreCondReq miss cycles
system.cpu00.dcache.demand_miss_latency::cpu00.data   5979881847                       # number of demand (read+write) miss cycles
system.cpu00.dcache.demand_miss_latency::total   5979881847                       # number of demand (read+write) miss cycles
system.cpu00.dcache.overall_miss_latency::cpu00.data   5979881847                       # number of overall miss cycles
system.cpu00.dcache.overall_miss_latency::total   5979881847                       # number of overall miss cycles
system.cpu00.dcache.ReadReq_accesses::cpu00.data       150625                       # number of ReadReq accesses(hits+misses)
system.cpu00.dcache.ReadReq_accesses::total       150625                       # number of ReadReq accesses(hits+misses)
system.cpu00.dcache.WriteReq_accesses::cpu00.data       118405                       # number of WriteReq accesses(hits+misses)
system.cpu00.dcache.WriteReq_accesses::total       118405                       # number of WriteReq accesses(hits+misses)
system.cpu00.dcache.LoadLockedReq_accesses::cpu00.data         1190                       # number of LoadLockedReq accesses(hits+misses)
system.cpu00.dcache.LoadLockedReq_accesses::total         1190                       # number of LoadLockedReq accesses(hits+misses)
system.cpu00.dcache.StoreCondReq_accesses::cpu00.data         1123                       # number of StoreCondReq accesses(hits+misses)
system.cpu00.dcache.StoreCondReq_accesses::total         1123                       # number of StoreCondReq accesses(hits+misses)
system.cpu00.dcache.demand_accesses::cpu00.data       269030                       # number of demand (read+write) accesses
system.cpu00.dcache.demand_accesses::total       269030                       # number of demand (read+write) accesses
system.cpu00.dcache.overall_accesses::cpu00.data       269030                       # number of overall (read+write) accesses
system.cpu00.dcache.overall_accesses::total       269030                       # number of overall (read+write) accesses
system.cpu00.dcache.ReadReq_miss_rate::cpu00.data     0.076156                       # miss rate for ReadReq accesses
system.cpu00.dcache.ReadReq_miss_rate::total     0.076156                       # miss rate for ReadReq accesses
system.cpu00.dcache.WriteReq_miss_rate::cpu00.data     0.299202                       # miss rate for WriteReq accesses
system.cpu00.dcache.WriteReq_miss_rate::total     0.299202                       # miss rate for WriteReq accesses
system.cpu00.dcache.LoadLockedReq_miss_rate::cpu00.data     0.264706                       # miss rate for LoadLockedReq accesses
system.cpu00.dcache.LoadLockedReq_miss_rate::total     0.264706                       # miss rate for LoadLockedReq accesses
system.cpu00.dcache.StoreCondReq_miss_rate::cpu00.data     0.016919                       # miss rate for StoreCondReq accesses
system.cpu00.dcache.StoreCondReq_miss_rate::total     0.016919                       # miss rate for StoreCondReq accesses
system.cpu00.dcache.demand_miss_rate::cpu00.data     0.174323                       # miss rate for demand accesses
system.cpu00.dcache.demand_miss_rate::total     0.174323                       # miss rate for demand accesses
system.cpu00.dcache.overall_miss_rate::cpu00.data     0.174323                       # miss rate for overall accesses
system.cpu00.dcache.overall_miss_rate::total     0.174323                       # miss rate for overall accesses
system.cpu00.dcache.ReadReq_avg_miss_latency::cpu00.data 41298.430477                       # average ReadReq miss latency
system.cpu00.dcache.ReadReq_avg_miss_latency::total 41298.430477                       # average ReadReq miss latency
system.cpu00.dcache.WriteReq_avg_miss_latency::cpu00.data 155422.348802                       # average WriteReq miss latency
system.cpu00.dcache.WriteReq_avg_miss_latency::total 155422.348802                       # average WriteReq miss latency
system.cpu00.dcache.LoadLockedReq_avg_miss_latency::cpu00.data 11089.606349                       # average LoadLockedReq miss latency
system.cpu00.dcache.LoadLockedReq_avg_miss_latency::total 11089.606349                       # average LoadLockedReq miss latency
system.cpu00.dcache.StoreCondReq_avg_miss_latency::cpu00.data        29524                       # average StoreCondReq miss latency
system.cpu00.dcache.StoreCondReq_avg_miss_latency::total        29524                       # average StoreCondReq miss latency
system.cpu00.dcache.demand_avg_miss_latency::cpu00.data 127508.248689                       # average overall miss latency
system.cpu00.dcache.demand_avg_miss_latency::total 127508.248689                       # average overall miss latency
system.cpu00.dcache.overall_avg_miss_latency::cpu00.data 127508.248689                       # average overall miss latency
system.cpu00.dcache.overall_avg_miss_latency::total 127508.248689                       # average overall miss latency
system.cpu00.dcache.blocked_cycles::no_mshrs       164971                       # number of cycles access was blocked
system.cpu00.dcache.blocked_cycles::no_targets            0                       # number of cycles access was blocked
system.cpu00.dcache.blocked::no_mshrs            3416                       # number of cycles access was blocked
system.cpu00.dcache.blocked::no_targets             0                       # number of cycles access was blocked
system.cpu00.dcache.avg_blocked_cycles::no_mshrs    48.293618                       # average number of cycles each access was blocked
system.cpu00.dcache.avg_blocked_cycles::no_targets          nan                       # average number of cycles each access was blocked
system.cpu00.dcache.fast_writes                     0                       # number of fast writes performed
system.cpu00.dcache.cache_copies                    0                       # number of cache copies performed
system.cpu00.dcache.writebacks::writebacks        10754                       # number of writebacks
system.cpu00.dcache.writebacks::total           10754                       # number of writebacks
system.cpu00.dcache.ReadReq_mshr_hits::cpu00.data         3629                       # number of ReadReq MSHR hits
system.cpu00.dcache.ReadReq_mshr_hits::total         3629                       # number of ReadReq MSHR hits
system.cpu00.dcache.WriteReq_mshr_hits::cpu00.data        28285                       # number of WriteReq MSHR hits
system.cpu00.dcache.WriteReq_mshr_hits::total        28285                       # number of WriteReq MSHR hits
system.cpu00.dcache.LoadLockedReq_mshr_hits::cpu00.data          142                       # number of LoadLockedReq MSHR hits
system.cpu00.dcache.LoadLockedReq_mshr_hits::total          142                       # number of LoadLockedReq MSHR hits
system.cpu00.dcache.demand_mshr_hits::cpu00.data        31914                       # number of demand (read+write) MSHR hits
system.cpu00.dcache.demand_mshr_hits::total        31914                       # number of demand (read+write) MSHR hits
system.cpu00.dcache.overall_mshr_hits::cpu00.data        31914                       # number of overall MSHR hits
system.cpu00.dcache.overall_mshr_hits::total        31914                       # number of overall MSHR hits
system.cpu00.dcache.ReadReq_mshr_misses::cpu00.data         7842                       # number of ReadReq MSHR misses
system.cpu00.dcache.ReadReq_mshr_misses::total         7842                       # number of ReadReq MSHR misses
system.cpu00.dcache.WriteReq_mshr_misses::cpu00.data         7142                       # number of WriteReq MSHR misses
system.cpu00.dcache.WriteReq_mshr_misses::total         7142                       # number of WriteReq MSHR misses
system.cpu00.dcache.LoadLockedReq_mshr_misses::cpu00.data          173                       # number of LoadLockedReq MSHR misses
system.cpu00.dcache.LoadLockedReq_mshr_misses::total          173                       # number of LoadLockedReq MSHR misses
system.cpu00.dcache.StoreCondReq_mshr_misses::cpu00.data           19                       # number of StoreCondReq MSHR misses
system.cpu00.dcache.StoreCondReq_mshr_misses::total           19                       # number of StoreCondReq MSHR misses
system.cpu00.dcache.demand_mshr_misses::cpu00.data        14984                       # number of demand (read+write) MSHR misses
system.cpu00.dcache.demand_mshr_misses::total        14984                       # number of demand (read+write) MSHR misses
system.cpu00.dcache.overall_mshr_misses::cpu00.data        14984                       # number of overall MSHR misses
system.cpu00.dcache.overall_mshr_misses::total        14984                       # number of overall MSHR misses
system.cpu00.dcache.ReadReq_mshr_miss_latency::cpu00.data    271383327                       # number of ReadReq MSHR miss cycles
system.cpu00.dcache.ReadReq_mshr_miss_latency::total    271383327                       # number of ReadReq MSHR miss cycles
system.cpu00.dcache.WriteReq_mshr_miss_latency::cpu00.data   1170093819                       # number of WriteReq MSHR miss cycles
system.cpu00.dcache.WriteReq_mshr_miss_latency::total   1170093819                       # number of WriteReq MSHR miss cycles
system.cpu00.dcache.LoadLockedReq_mshr_miss_latency::cpu00.data      1744295                       # number of LoadLockedReq MSHR miss cycles
system.cpu00.dcache.LoadLockedReq_mshr_miss_latency::total      1744295                       # number of LoadLockedReq MSHR miss cycles
system.cpu00.dcache.StoreCondReq_mshr_miss_latency::cpu00.data       538935                       # number of StoreCondReq MSHR miss cycles
system.cpu00.dcache.StoreCondReq_mshr_miss_latency::total       538935                       # number of StoreCondReq MSHR miss cycles
system.cpu00.dcache.demand_mshr_miss_latency::cpu00.data   1441477146                       # number of demand (read+write) MSHR miss cycles
system.cpu00.dcache.demand_mshr_miss_latency::total   1441477146                       # number of demand (read+write) MSHR miss cycles
system.cpu00.dcache.overall_mshr_miss_latency::cpu00.data   1441477146                       # number of overall MSHR miss cycles
system.cpu00.dcache.overall_mshr_miss_latency::total   1441477146                       # number of overall MSHR miss cycles
system.cpu00.dcache.ReadReq_mshr_miss_rate::cpu00.data     0.052063                       # mshr miss rate for ReadReq accesses
system.cpu00.dcache.ReadReq_mshr_miss_rate::total     0.052063                       # mshr miss rate for ReadReq accesses
system.cpu00.dcache.WriteReq_mshr_miss_rate::cpu00.data     0.060318                       # mshr miss rate for WriteReq accesses
system.cpu00.dcache.WriteReq_mshr_miss_rate::total     0.060318                       # mshr miss rate for WriteReq accesses
system.cpu00.dcache.LoadLockedReq_mshr_miss_rate::cpu00.data     0.145378                       # mshr miss rate for LoadLockedReq accesses
system.cpu00.dcache.LoadLockedReq_mshr_miss_rate::total     0.145378                       # mshr miss rate for LoadLockedReq accesses
system.cpu00.dcache.StoreCondReq_mshr_miss_rate::cpu00.data     0.016919                       # mshr miss rate for StoreCondReq accesses
system.cpu00.dcache.StoreCondReq_mshr_miss_rate::total     0.016919                       # mshr miss rate for StoreCondReq accesses
system.cpu00.dcache.demand_mshr_miss_rate::cpu00.data     0.055696                       # mshr miss rate for demand accesses
system.cpu00.dcache.demand_mshr_miss_rate::total     0.055696                       # mshr miss rate for demand accesses
system.cpu00.dcache.overall_mshr_miss_rate::cpu00.data     0.055696                       # mshr miss rate for overall accesses
system.cpu00.dcache.overall_mshr_miss_rate::total     0.055696                       # mshr miss rate for overall accesses
system.cpu00.dcache.ReadReq_avg_mshr_miss_latency::cpu00.data 34606.392119                       # average ReadReq mshr miss latency
system.cpu00.dcache.ReadReq_avg_mshr_miss_latency::total 34606.392119                       # average ReadReq mshr miss latency
system.cpu00.dcache.WriteReq_avg_mshr_miss_latency::cpu00.data 163832.794595                       # average WriteReq mshr miss latency
system.cpu00.dcache.WriteReq_avg_mshr_miss_latency::total 163832.794595                       # average WriteReq mshr miss latency
[...]
system.tol2bus.pkt_count_system.cpu06.dcache.mem_side::system.l2.cpu_side         2736                       # Packet count per connected master and slave (bytes)
system.tol2bus.pkt_count_system.cpu07.icache.mem_side::system.l2.cpu_side         2560                       # Packet count per connected master and slave (bytes)
system.tol2bus.pkt_count_system.cpu07.dcache.mem_side::system.l2.cpu_side         3458                       # Packet count per connected master and slave (bytes)
system.tol2bus.pkt_count_system.cpu08.icache.mem_side::system.l2.cpu_side         2664                       # Packet count per connected master and slave (bytes)
system.tol2bus.pkt_count_system.cpu08.dcache.mem_side::system.l2.cpu_side         4000                       # Packet count per connected master and slave (bytes)
system.tol2bus.pkt_count_system.cpu09.icache.mem_side::system.l2.cpu_side         1652                       # Packet count per connected master and slave (bytes)
system.tol2bus.pkt_count_system.cpu09.dcache.mem_side::system.l2.cpu_side         1587                       # Packet count per connected master and slave (bytes)
system.tol2bus.pkt_count_system.cpu10.icache.mem_side::system.l2.cpu_side         2314                       # Packet count per connected master and slave (bytes)
system.tol2bus.pkt_count_system.cpu10.dcache.mem_side::system.l2.cpu_side         2639                       # Packet count per connected master and slave (bytes)
system.tol2bus.pkt_count_system.cpu11.icache.mem_side::system.l2.cpu_side         1011                       # Packet count per connected master and slave (bytes)
system.tol2bus.pkt_count_system.cpu11.dcache.mem_side::system.l2.cpu_side         1270                       # Packet count per connected master and slave (bytes)
system.tol2bus.pkt_count_system.cpu12.icache.mem_side::system.l2.cpu_side         1233                       # Packet count per connected master and slave (bytes)
system.tol2bus.pkt_count_system.cpu12.dcache.mem_side::system.l2.cpu_side         1362                       # Packet count per connected master and slave (bytes)
system.tol2bus.pkt_count_system.cpu13.icache.mem_side::system.l2.cpu_side         1546                       # Packet count per connected master and slave (bytes)
system.tol2bus.pkt_count_system.cpu13.dcache.mem_side::system.l2.cpu_side         2006                       # Packet count per connected master and slave (bytes)
system.tol2bus.pkt_count_system.cpu14.icache.mem_side::system.l2.cpu_side          922                       # Packet count per connected master and slave (bytes)
system.tol2bus.pkt_count_system.cpu14.dcache.mem_side::system.l2.cpu_side         1295                       # Packet count per connected master and slave (bytes)
system.tol2bus.pkt_count_system.cpu15.icache.mem_side::system.l2.cpu_side         2383                       # Packet count per connected master and slave (bytes)
system.tol2bus.pkt_count_system.cpu15.dcache.mem_side::system.l2.cpu_side         3898                       # Packet count per connected master and slave (bytes)
system.tol2bus.pkt_count::total                136872                       # Packet count per connected master and slave (bytes)
system.tol2bus.pkt_size_system.cpu00.icache.mem_side::system.l2.cpu_side       973312                       # Cumulative packet size per connected master and slave (bytes)
system.tol2bus.pkt_size_system.cpu00.dcache.mem_side::system.l2.cpu_side      1635136                       # Cumulative packet size per connected master and slave (bytes)
system.tol2bus.pkt_size_system.cpu01.icache.mem_side::system.l2.cpu_side        81856                       # Cumulative packet size per connected master and slave (bytes)
system.tol2bus.pkt_size_system.cpu01.dcache.mem_side::system.l2.cpu_side        69696                       # Cumulative packet size per connected master and slave (bytes)
system.tol2bus.pkt_size_system.cpu02.icache.mem_side::system.l2.cpu_side        88512                       # Cumulative packet size per connected master and slave (bytes)
system.tol2bus.pkt_size_system.cpu02.dcache.mem_side::system.l2.cpu_side        66368                       # Cumulative packet size per connected master and slave (bytes)
system.tol2bus.pkt_size_system.cpu03.icache.mem_side::system.l2.cpu_side        95040                       # Cumulative packet size per connected master and slave (bytes)
system.tol2bus.pkt_size_system.cpu03.dcache.mem_side::system.l2.cpu_side        78336                       # Cumulative packet size per connected master and slave (bytes)
system.tol2bus.pkt_size_system.cpu04.icache.mem_side::system.l2.cpu_side        93952                       # Cumulative packet size per connected master and slave (bytes)
system.tol2bus.pkt_size_system.cpu04.dcache.mem_side::system.l2.cpu_side        84736                       # Cumulative packet size per connected master and slave (bytes)
system.tol2bus.pkt_size_system.cpu05.icache.mem_side::system.l2.cpu_side        77632                       # Cumulative packet size per connected master and slave (bytes)
system.tol2bus.pkt_size_system.cpu05.dcache.mem_side::system.l2.cpu_side        67008                       # Cumulative packet size per connected master and slave (bytes)
system.tol2bus.pkt_size_system.cpu06.icache.mem_side::system.l2.cpu_side        77312                       # Cumulative packet size per connected master and slave (bytes)
system.tol2bus.pkt_size_system.cpu06.dcache.mem_side::system.l2.cpu_side        65984                       # Cumulative packet size per connected master and slave (bytes)
system.tol2bus.pkt_size_system.cpu07.icache.mem_side::system.l2.cpu_side        99008                       # Cumulative packet size per connected master and slave (bytes)
system.tol2bus.pkt_size_system.cpu07.dcache.mem_side::system.l2.cpu_side        83840                       # Cumulative packet size per connected master and slave (bytes)
system.tol2bus.pkt_size_system.cpu08.icache.mem_side::system.l2.cpu_side       103360                       # Cumulative packet size per connected master and slave (bytes)
system.tol2bus.pkt_size_system.cpu08.dcache.mem_side::system.l2.cpu_side        97536                       # Cumulative packet size per connected master and slave (bytes)
system.tol2bus.pkt_size_system.cpu09.icache.mem_side::system.l2.cpu_side        60672                       # Cumulative packet size per connected master and slave (bytes)
system.tol2bus.pkt_size_system.cpu09.dcache.mem_side::system.l2.cpu_side        42368                       # Cumulative packet size per connected master and slave (bytes)
system.tol2bus.pkt_size_system.cpu10.icache.mem_side::system.l2.cpu_side        88448                       # Cumulative packet size per connected master and slave (bytes)
system.tol2bus.pkt_size_system.cpu10.dcache.mem_side::system.l2.cpu_side        66048                       # Cumulative packet size per connected master and slave (bytes)
system.tol2bus.pkt_size_system.cpu11.icache.mem_side::system.l2.cpu_side        34816                       # Cumulative packet size per connected master and slave (bytes)
system.tol2bus.pkt_size_system.cpu11.dcache.mem_side::system.l2.cpu_side        38080                       # Cumulative packet size per connected master and slave (bytes)
system.tol2bus.pkt_size_system.cpu12.icache.mem_side::system.l2.cpu_side        43392                       # Cumulative packet size per connected master and slave (bytes)
system.tol2bus.pkt_size_system.cpu12.dcache.mem_side::system.l2.cpu_side        40832                       # Cumulative packet size per connected master and slave (bytes)
system.tol2bus.pkt_size_system.cpu13.icache.mem_side::system.l2.cpu_side        56256                       # Cumulative packet size per connected master and slave (bytes)
system.tol2bus.pkt_size_system.cpu13.dcache.mem_side::system.l2.cpu_side        43136                       # Cumulative packet size per connected master and slave (bytes)
system.tol2bus.pkt_size_system.cpu14.icache.mem_side::system.l2.cpu_side        31232                       # Cumulative packet size per connected master and slave (bytes)
system.tol2bus.pkt_size_system.cpu14.dcache.mem_side::system.l2.cpu_side        41984                       # Cumulative packet size per connected master and slave (bytes)
system.tol2bus.pkt_size_system.cpu15.icache.mem_side::system.l2.cpu_side        91968                       # Cumulative packet size per connected master and slave (bytes)
system.tol2bus.pkt_size_system.cpu15.dcache.mem_side::system.l2.cpu_side        91648                       # Cumulative packet size per connected master and slave (bytes)
system.tol2bus.pkt_size::total                4709504                       # Cumulative packet size per connected master and slave (bytes)
system.tol2bus.snoops                            8812                       # Total snoops (count)
system.tol2bus.snoop_fanout::samples            54516                       # Request fanout histogram
system.tol2bus.snoop_fanout::mean            2.156816                       # Request fanout histogram
system.tol2bus.snoop_fanout::stdev           3.763372                       # Request fanout histogram
system.tol2bus.snoop_fanout::underflows             0      0.00%      0.00% # Request fanout histogram
system.tol2bus.snoop_fanout::0                  31193     57.22%     57.22% # Request fanout histogram
system.tol2bus.snoop_fanout::1                   7849     14.40%     71.62% # Request fanout histogram
system.tol2bus.snoop_fanout::2                   2310      4.24%     75.85% # Request fanout histogram
system.tol2bus.snoop_fanout::3                   1480      2.71%     78.57% # Request fanout histogram
system.tol2bus.snoop_fanout::4                   1347      2.47%     81.04% # Request fanout histogram
system.tol2bus.snoop_fanout::5                   1281      2.35%     83.39% # Request fanout histogram
system.tol2bus.snoop_fanout::6                   1245      2.28%     85.67% # Request fanout histogram
system.tol2bus.snoop_fanout::7                   1189      2.18%     87.85% # Request fanout histogram
system.tol2bus.snoop_fanout::8                   1065      1.95%     89.81% # Request fanout histogram
system.tol2bus.snoop_fanout::9                    992      1.82%     91.63% # Request fanout histogram
system.tol2bus.snoop_fanout::10                   913      1.67%     93.30% # Request fanout histogram
system.tol2bus.snoop_fanout::11                   845      1.55%     94.85% # Request fanout histogram
system.tol2bus.snoop_fanout::12                   901      1.65%     96.50% # Request fanout histogram
system.tol2bus.snoop_fanout::13                   725      1.33%     97.83% # Request fanout histogram
system.tol2bus.snoop_fanout::14                   743      1.36%     99.20% # Request fanout histogram
system.tol2bus.snoop_fanout::15                   434      0.80%     99.99% # Request fanout histogram
system.tol2bus.snoop_fanout::16                     4      0.01%    100.00% # Request fanout histogram
system.tol2bus.snoop_fanout::17                     0      0.00%    100.00% # Request fanout histogram
system.tol2bus.snoop_fanout::18                     0      0.00%    100.00% # Request fanout histogram
system.tol2bus.snoop_fanout::19                     0      0.00%    100.00% # Request fanout histogram
system.tol2bus.snoop_fanout::20                     0      0.00%    100.00% # Request fanout histogram
system.tol2bus.snoop_fanout::21                     0      0.00%    100.00% # Request fanout histogram
system.tol2bus.snoop_fanout::22                     0      0.00%    100.00% # Request fanout histogram
system.tol2bus.snoop_fanout::23                     0      0.00%    100.00% # Request fanout histogram
system.tol2bus.snoop_fanout::24                     0      0.00%    100.00% # Request fanout histogram
system.tol2bus.snoop_fanout::25                     0      0.00%    100.00% # Request fanout histogram
system.tol2bus.snoop_fanout::26                     0      0.00%    100.00% # Request fanout histogram
system.tol2bus.snoop_fanout::27                     0      0.00%    100.00% # Request fanout histogram
system.tol2bus.snoop_fanout::28                     0      0.00%    100.00% # Request fanout histogram
system.tol2bus.snoop_fanout::29                     0      0.00%    100.00% # Request fanout histogram
system.tol2bus.snoop_fanout::30                     0      0.00%    100.00% # Request fanout histogram
system.tol2bus.snoop_fanout::31                     0      0.00%    100.00% # Request fanout histogram
system.tol2bus.snoop_fanout::32                     0      0.00%    100.00% # Request fanout histogram
system.tol2bus.snoop_fanout::overflows              0      0.00%    100.00% # Request fanout histogram
system.tol2bus.snoop_fanout::min_value              0                       # Request fanout histogram
system.tol2bus.snoop_fanout::max_value             16                       # Request fanout histogram
system.tol2bus.snoop_fanout::total              54516                       # Request fanout histogram
system.tol2bus.reqLayer0.occupancy          173522852                       # Layer occupancy (ticks)
system.tol2bus.reqLayer0.utilization             13.4                       # Layer utilization (%)
system.tol2bus.respLayer0.occupancy          27691881                       # Layer occupancy (ticks)
system.tol2bus.respLayer0.utilization             2.1                       # Layer utilization (%)
system.tol2bus.respLayer1.occupancy          52826976                       # Layer occupancy (ticks)
system.tol2bus.respLayer1.utilization             4.1                       # Layer utilization (%)
system.tol2bus.respLayer2.occupancy           3127418                       # Layer occupancy (ticks)
system.tol2bus.respLayer2.utilization             0.2                       # Layer utilization (%)
system.tol2bus.respLayer3.occupancy           4027468                       # Layer occupancy (ticks)
system.tol2bus.respLayer3.utilization             0.3                       # Layer utilization (%)
system.tol2bus.respLayer4.occupancy           3315058                       # Layer occupancy (ticks)
system.tol2bus.respLayer4.utilization             0.3                       # Layer utilization (%)
system.tol2bus.respLayer5.occupancy           3406801                       # Layer occupancy (ticks)
system.tol2bus.respLayer5.utilization             0.3                       # Layer utilization (%)
system.tol2bus.respLayer6.occupancy           3502120                       # Layer occupancy (ticks)
system.tol2bus.respLayer6.utilization             0.3                       # Layer utilization (%)
system.tol2bus.respLayer7.occupancy           5026865                       # Layer occupancy (ticks)
system.tol2bus.respLayer7.utilization             0.4                       # Layer utilization (%)
system.tol2bus.respLayer8.occupancy           3476628                       # Layer occupancy (ticks)
system.tol2bus.respLayer8.utilization             0.3                       # Layer utilization (%)
system.tol2bus.respLayer9.occupancy           5226198                       # Layer occupancy (ticks)
system.tol2bus.respLayer9.utilization             0.4                       # Layer utilization (%)
system.tol2bus.respLayer10.occupancy          3026927                       # Layer occupancy (ticks)
system.tol2bus.respLayer10.utilization            0.2                       # Layer utilization (%)
system.tol2bus.respLayer11.occupancy          4364038                       # Layer occupancy (ticks)
system.tol2bus.respLayer11.utilization            0.3                       # Layer utilization (%)
system.tol2bus.respLayer12.occupancy          3023504                       # Layer occupancy (ticks)
system.tol2bus.respLayer12.utilization            0.2                       # Layer utilization (%)
system.tol2bus.respLayer13.occupancy          4074898                       # Layer occupancy (ticks)
system.tol2bus.respLayer13.utilization            0.3                       # Layer utilization (%)
system.tol2bus.respLayer14.occupancy          3637314                       # Layer occupancy (ticks)
system.tol2bus.respLayer14.utilization            0.3                       # Layer utilization (%)
system.tol2bus.respLayer15.occupancy          5159119                       # Layer occupancy (ticks)
system.tol2bus.respLayer15.utilization            0.4                       # Layer utilization (%)
system.tol2bus.respLayer16.occupancy          3700206                       # Layer occupancy (ticks)
system.tol2bus.respLayer16.utilization            0.3                       # Layer utilization (%)
system.tol2bus.respLayer17.occupancy          5985723                       # Layer occupancy (ticks)
system.tol2bus.respLayer17.utilization            0.5                       # Layer utilization (%)
system.tol2bus.respLayer18.occupancy          2549202                       # Layer occupancy (ticks)
system.tol2bus.respLayer18.utilization            0.2                       # Layer utilization (%)
system.tol2bus.respLayer19.occupancy          2281309                       # Layer occupancy (ticks)
system.tol2bus.respLayer19.utilization            0.2                       # Layer utilization (%)
system.tol2bus.respLayer20.occupancy          3361996                       # Layer occupancy (ticks)
system.tol2bus.respLayer20.utilization            0.3                       # Layer utilization (%)
system.tol2bus.respLayer21.occupancy          3822772                       # Layer occupancy (ticks)
system.tol2bus.respLayer21.utilization            0.3                       # Layer utilization (%)
system.tol2bus.respLayer22.occupancy          1691675                       # Layer occupancy (ticks)
system.tol2bus.respLayer22.utilization            0.1                       # Layer utilization (%)
system.tol2bus.respLayer23.occupancy          1751951                       # Layer occupancy (ticks)
system.tol2bus.respLayer23.utilization            0.1                       # Layer utilization (%)
system.tol2bus.respLayer24.occupancy          2007092                       # Layer occupancy (ticks)
system.tol2bus.respLayer24.utilization            0.2                       # Layer utilization (%)
system.tol2bus.respLayer25.occupancy          1838766                       # Layer occupancy (ticks)
system.tol2bus.respLayer25.utilization            0.1                       # Layer utilization (%)
system.tol2bus.respLayer26.occupancy          2393686                       # Layer occupancy (ticks)
system.tol2bus.respLayer26.utilization            0.2                       # Layer utilization (%)
system.tol2bus.respLayer27.occupancy          2599529                       # Layer occupancy (ticks)
system.tol2bus.respLayer27.utilization            0.2                       # Layer utilization (%)
system.tol2bus.respLayer28.occupancy          1551096                       # Layer occupancy (ticks)
system.tol2bus.respLayer28.utilization            0.1                       # Layer utilization (%)
system.tol2bus.respLayer29.occupancy          1731623                       # Layer occupancy (ticks)
system.tol2bus.respLayer29.utilization            0.1                       # Layer utilization (%)
system.tol2bus.respLayer30.occupancy          3367405                       # Layer occupancy (ticks)
system.tol2bus.respLayer30.utilization            0.3                       # Layer utilization (%)
system.tol2bus.respLayer31.occupancy          5756383                       # Layer occupancy (ticks)
system.tol2bus.respLayer31.utilization            0.4                       # Layer utilization (%)

---------- End Simulation Statistics   ----------
