
---------- Begin Simulation Statistics ----------
sim_seconds                                  0.001333                       # Number of seconds simulated
sim_ticks                                  1332803862                       # Number of ticks simulated
final_tick                                 1332803862                       # Number of ticks from beginning of simulation (restored from checkpoints and never reset)
sim_freq                                 1000000000000                       # Frequency of simulated ticks
host_inst_rate                                 224527                       # Simulator instruction rate (inst/s)
host_op_rate                                   224526                       # Simulator op (including micro ops) rate (op/s)
host_tick_rate                              107454803                       # Simulator tick rate (ticks/s)
host_mem_usage                                 697636                       # Number of bytes of host memory used
host_seconds                                    12.40                       # Real time elapsed on the host
sim_insts                                     2784884                       # Number of instructions simulated
sim_ops                                       2784884                       # Number of ops (including micro ops) simulated
system.voltage_domain.voltage                       1                       # Voltage in Volts
system.clk_domain.clock                          1000                       # Clock period in ticks
system.mem_ctrls.bytes_read::cpu00.inst        118976                       # Number of bytes read from this memory
system.mem_ctrls.bytes_read::cpu00.data        376512                       # Number of bytes read from this memory
system.mem_ctrls.bytes_read::cpu01.inst         13632                       # Number of bytes read from this memory
system.mem_ctrls.bytes_read::cpu01.data          5696                       # Number of bytes read from this memory
system.mem_ctrls.bytes_read::cpu02.inst          1664                       # Number of bytes read from this memory
system.mem_ctrls.bytes_read::cpu02.data          5312                       # Number of bytes read from this memory
system.mem_ctrls.bytes_read::cpu03.inst           960                       # Number of bytes read from this memory
system.mem_ctrls.bytes_read::cpu03.data          4480                       # Number of bytes read from this memory
system.mem_ctrls.bytes_read::cpu04.inst           128                       # Number of bytes read from this memory
system.mem_ctrls.bytes_read::cpu04.data          4288                       # Number of bytes read from this memory
system.mem_ctrls.bytes_read::cpu05.inst           640                       # Number of bytes read from this memory
system.mem_ctrls.bytes_read::cpu05.data          6592                       # Number of bytes read from this memory
system.mem_ctrls.bytes_read::cpu06.inst           128                       # Number of bytes read from this memory
system.mem_ctrls.bytes_read::cpu06.data          4480                       # Number of bytes read from this memory
system.mem_ctrls.bytes_read::cpu07.inst           192                       # Number of bytes read from this memory
system.mem_ctrls.bytes_read::cpu07.data          5632                       # Number of bytes read from this memory
system.mem_ctrls.bytes_read::cpu08.inst           512                       # Number of bytes read from this memory
system.mem_ctrls.bytes_read::cpu08.data          5504                       # Number of bytes read from this memory
system.mem_ctrls.bytes_read::cpu09.inst           384                       # Number of bytes read from this memory
system.mem_ctrls.bytes_read::cpu09.data          4480                       # Number of bytes read from this memory
system.mem_ctrls.bytes_read::cpu10.inst          2560                       # Number of bytes read from this memory
system.mem_ctrls.bytes_read::cpu10.data          6016                       # Number of bytes read from this memory
system.mem_ctrls.bytes_read::cpu11.inst           960                       # Number of bytes read from this memory
system.mem_ctrls.bytes_read::cpu11.data          5888                       # Number of bytes read from this memory
system.mem_ctrls.bytes_read::cpu12.inst          5760                       # Number of bytes read from this memory
system.mem_ctrls.bytes_read::cpu12.data          5696                       # Number of bytes read from this memory
system.mem_ctrls.bytes_read::cpu13.inst          1280                       # Number of bytes read from this memory
system.mem_ctrls.bytes_read::cpu13.data          5440                       # Number of bytes read from this memory
system.mem_ctrls.bytes_read::cpu14.inst           704                       # Number of bytes read from this memory
system.mem_ctrls.bytes_read::cpu14.data          5312                       # Number of bytes read from this memory
system.mem_ctrls.bytes_read::cpu15.inst           768                       # Number of bytes read from this memory
system.mem_ctrls.bytes_read::cpu15.data          5440                       # Number of bytes read from this memory
system.mem_ctrls.bytes_read::total             606016                       # Number of bytes read from this memory
system.mem_ctrls.bytes_inst_read::cpu00.inst       118976                       # Number of instructions bytes read from this memory
system.mem_ctrls.bytes_inst_read::cpu01.inst        13632                       # Number of instructions bytes read from this memory
system.mem_ctrls.bytes_inst_read::cpu02.inst         1664                       # Number of instructions bytes read from this memory
system.mem_ctrls.bytes_inst_read::cpu03.inst          960                       # Number of instructions bytes read from this memory
system.mem_ctrls.bytes_inst_read::cpu04.inst          128                       # Number of instructions bytes read from this memory
system.mem_ctrls.bytes_inst_read::cpu05.inst          640                       # Number of instructions bytes read from this memory
system.mem_ctrls.bytes_inst_read::cpu06.inst          128                       # Number of instructions bytes read from this memory
system.mem_ctrls.bytes_inst_read::cpu07.inst          192                       # Number of instructions bytes read from this memory
system.mem_ctrls.bytes_inst_read::cpu08.inst          512                       # Number of instructions bytes read from this memory
system.mem_ctrls.bytes_inst_read::cpu09.inst          384                       # Number of instructions bytes read from this memory
system.mem_ctrls.bytes_inst_read::cpu10.inst         2560                       # Number of instructions bytes read from this memory
system.mem_ctrls.bytes_inst_read::cpu11.inst          960                       # Number of instructions bytes read from this memory
system.mem_ctrls.bytes_inst_read::cpu12.inst         5760                       # Number of instructions bytes read from this memory
system.mem_ctrls.bytes_inst_read::cpu13.inst         1280                       # Number of instructions bytes read from this memory
system.mem_ctrls.bytes_inst_read::cpu14.inst          704                       # Number of instructions bytes read from this memory
system.mem_ctrls.bytes_inst_read::cpu15.inst          768                       # Number of instructions bytes read from this memory
system.mem_ctrls.bytes_inst_read::total        149248                       # Number of instructions bytes read from this memory
system.mem_ctrls.num_reads::cpu00.inst           1859                       # Number of read requests responded to by this memory
system.mem_ctrls.num_reads::cpu00.data           5883                       # Number of read requests responded to by this memory
system.mem_ctrls.num_reads::cpu01.inst            213                       # Number of read requests responded to by this memory
system.mem_ctrls.num_reads::cpu01.data             89                       # Number of read requests responded to by this memory
system.mem_ctrls.num_reads::cpu02.inst             26                       # Number of read requests responded to by this memory
system.mem_ctrls.num_reads::cpu02.data             83                       # Number of read requests responded to by this memory
system.mem_ctrls.num_reads::cpu03.inst             15                       # Number of read requests responded to by this memory
system.mem_ctrls.num_reads::cpu03.data             70                       # Number of read requests responded to by this memory
system.mem_ctrls.num_reads::cpu04.inst              2                       # Number of read requests responded to by this memory
system.mem_ctrls.num_reads::cpu04.data             67                       # Number of read requests responded to by this memory
system.mem_ctrls.num_reads::cpu05.inst             10                       # Number of read requests responded to by this memory
system.mem_ctrls.num_reads::cpu05.data            103                       # Number of read requests responded to by this memory
system.mem_ctrls.num_reads::cpu06.inst              2                       # Number of read requests responded to by this memory
system.mem_ctrls.num_reads::cpu06.data             70                       # Number of read requests responded to by this memory
system.mem_ctrls.num_reads::cpu07.inst              3                       # Number of read requests responded to by this memory
system.mem_ctrls.num_reads::cpu07.data             88                       # Number of read requests responded to by this memory
system.mem_ctrls.num_reads::cpu08.inst              8                       # Number of read requests responded to by this memory
system.mem_ctrls.num_reads::cpu08.data             86                       # Number of read requests responded to by this memory
system.mem_ctrls.num_reads::cpu09.inst              6                       # Number of read requests responded to by this memory
system.mem_ctrls.num_reads::cpu09.data             70                       # Number of read requests responded to by this memory
system.mem_ctrls.num_reads::cpu10.inst             40                       # Number of read requests responded to by this memory
system.mem_ctrls.num_reads::cpu10.data             94                       # Number of read requests responded to by this memory
system.mem_ctrls.num_reads::cpu11.inst             15                       # Number of read requests responded to by this memory
system.mem_ctrls.num_reads::cpu11.data             92                       # Number of read requests responded to by this memory
system.mem_ctrls.num_reads::cpu12.inst             90                       # Number of read requests responded to by this memory
system.mem_ctrls.num_reads::cpu12.data             89                       # Number of read requests responded to by this memory
system.mem_ctrls.num_reads::cpu13.inst             20                       # Number of read requests responded to by this memory
system.mem_ctrls.num_reads::cpu13.data             85                       # Number of read requests responded to by this memory
system.mem_ctrls.num_reads::cpu14.inst             11                       # Number of read requests responded to by this memory
system.mem_ctrls.num_reads::cpu14.data             83                       # Number of read requests responded to by this memory
system.mem_ctrls.num_reads::cpu15.inst             12                       # Number of read requests responded to by this memory
system.mem_ctrls.num_reads::cpu15.data             85                       # Number of read requests responded to by this memory
system.mem_ctrls.num_reads::total                9469                       # Number of read requests responded to by this memory
system.mem_ctrls.bw_read::cpu00.inst         89267448                       # Total read bandwidth from this memory (bytes/s)
system.mem_ctrls.bw_read::cpu00.data        282496180                       # Total read bandwidth from this memory (bytes/s)
system.mem_ctrls.bw_read::cpu01.inst         10228062                       # Total read bandwidth from this memory (bytes/s)
system.mem_ctrls.bw_read::cpu01.data          4273697                       # Total read bandwidth from this memory (bytes/s)
system.mem_ctrls.bw_read::cpu02.inst          1248496                       # Total read bandwidth from this memory (bytes/s)
system.mem_ctrls.bw_read::cpu02.data          3985583                       # Total read bandwidth from this memory (bytes/s)
system.mem_ctrls.bw_read::cpu03.inst           720286                       # Total read bandwidth from this memory (bytes/s)
system.mem_ctrls.bw_read::cpu03.data          3361335                       # Total read bandwidth from this memory (bytes/s)
system.mem_ctrls.bw_read::cpu04.inst            96038                       # Total read bandwidth from this memory (bytes/s)
system.mem_ctrls.bw_read::cpu04.data          3217278                       # Total read bandwidth from this memory (bytes/s)
system.mem_ctrls.bw_read::cpu05.inst           480191                       # Total read bandwidth from this memory (bytes/s)
system.mem_ctrls.bw_read::cpu05.data          4945964                       # Total read bandwidth from this memory (bytes/s)
system.mem_ctrls.bw_read::cpu06.inst            96038                       # Total read bandwidth from this memory (bytes/s)
system.mem_ctrls.bw_read::cpu06.data          3361335                       # Total read bandwidth from this memory (bytes/s)
system.mem_ctrls.bw_read::cpu07.inst           144057                       # Total read bandwidth from this memory (bytes/s)
system.mem_ctrls.bw_read::cpu07.data          4225678                       # Total read bandwidth from this memory (bytes/s)
system.mem_ctrls.bw_read::cpu08.inst           384153                       # Total read bandwidth from this memory (bytes/s)
system.mem_ctrls.bw_read::cpu08.data          4129640                       # Total read bandwidth from this memory (bytes/s)
system.mem_ctrls.bw_read::cpu09.inst           288114                       # Total read bandwidth from this memory (bytes/s)
system.mem_ctrls.bw_read::cpu09.data          3361335                       # Total read bandwidth from this memory (bytes/s)
system.mem_ctrls.bw_read::cpu10.inst          1920763                       # Total read bandwidth from this memory (bytes/s)
system.mem_ctrls.bw_read::cpu10.data          4513792                       # Total read bandwidth from this memory (bytes/s)
system.mem_ctrls.bw_read::cpu11.inst           720286                       # Total read bandwidth from this memory (bytes/s)
system.mem_ctrls.bw_read::cpu11.data          4417754                       # Total read bandwidth from this memory (bytes/s)
system.mem_ctrls.bw_read::cpu12.inst          4321716                       # Total read bandwidth from this memory (bytes/s)
system.mem_ctrls.bw_read::cpu12.data          4273697                       # Total read bandwidth from this memory (bytes/s)
system.mem_ctrls.bw_read::cpu13.inst           960381                       # Total read bandwidth from this memory (bytes/s)
system.mem_ctrls.bw_read::cpu13.data          4081621                       # Total read bandwidth from this memory (bytes/s)
system.mem_ctrls.bw_read::cpu14.inst           528210                       # Total read bandwidth from this memory (bytes/s)
system.mem_ctrls.bw_read::cpu14.data          3985583                       # Total read bandwidth from this memory (bytes/s)
system.mem_ctrls.bw_read::cpu15.inst           576229                       # Total read bandwidth from this memory (bytes/s)
system.mem_ctrls.bw_read::cpu15.data          4081621                       # Total read bandwidth from this memory (bytes/s)
system.mem_ctrls.bw_read::total             454692560                       # Total read bandwidth from this memory (bytes/s)
system.mem_ctrls.bw_inst_read::cpu00.inst     89267448                       # Instruction read bandwidth from this memory (bytes/s)
system.mem_ctrls.bw_inst_read::cpu01.inst     10228062                       # Instruction read bandwidth from this memory (bytes/s)
system.mem_ctrls.bw_inst_read::cpu02.inst      1248496                       # Instruction read bandwidth from this memory (bytes/s)
system.mem_ctrls.bw_inst_read::cpu03.inst       720286                       # Instruction read bandwidth from this memory (bytes/s)
system.mem_ctrls.bw_inst_read::cpu04.inst        96038                       # Instruction read bandwidth from this memory (bytes/s)
system.mem_ctrls.bw_inst_read::cpu05.inst       480191                       # Instruction read bandwidth from this memory (bytes/s)
system.mem_ctrls.bw_inst_read::cpu06.inst        96038                       # Instruction read bandwidth from this memory (bytes/s)
system.mem_ctrls.bw_inst_read::cpu07.inst       144057                       # Instruction read bandwidth from this memory (bytes/s)
system.mem_ctrls.bw_inst_read::cpu08.inst       384153                       # Instruction read bandwidth from this memory (bytes/s)
system.mem_ctrls.bw_inst_read::cpu09.inst       288114                       # Instruction read bandwidth from this memory (bytes/s)
system.mem_ctrls.bw_inst_read::cpu10.inst      1920763                       # Instruction read bandwidth from this memory (bytes/s)
system.mem_ctrls.bw_inst_read::cpu11.inst       720286                       # Instruction read bandwidth from this memory (bytes/s)
system.mem_ctrls.bw_inst_read::cpu12.inst      4321716                       # Instruction read bandwidth from this memory (bytes/s)
system.mem_ctrls.bw_inst_read::cpu13.inst       960381                       # Instruction read bandwidth from this memory (bytes/s)
system.mem_ctrls.bw_inst_read::cpu14.inst       528210                       # Instruction read bandwidth from this memory (bytes/s)
system.mem_ctrls.bw_inst_read::cpu15.inst       576229                       # Instruction read bandwidth from this memory (bytes/s)
system.mem_ctrls.bw_inst_read::total        111980468                       # Instruction read bandwidth from this memory (bytes/s)
system.mem_ctrls.bw_total::cpu00.inst        89267448                       # Total bandwidth to/from this memory (bytes/s)
system.mem_ctrls.bw_total::cpu00.data       282496180                       # Total bandwidth to/from this memory (bytes/s)
system.mem_ctrls.bw_total::cpu01.inst        10228062                       # Total bandwidth to/from this memory (bytes/s)
system.mem_ctrls.bw_total::cpu01.data         4273697                       # Total bandwidth to/from this memory (bytes/s)
system.mem_ctrls.bw_total::cpu02.inst         1248496                       # Total bandwidth to/from this memory (bytes/s)
system.mem_ctrls.bw_total::cpu02.data         3985583                       # Total bandwidth to/from this memory (bytes/s)
system.mem_ctrls.bw_total::cpu03.inst          720286                       # Total bandwidth to/from this memory (bytes/s)
system.mem_ctrls.bw_total::cpu03.data         3361335                       # Total bandwidth to/from this memory (bytes/s)
system.mem_ctrls.bw_total::cpu04.inst           96038                       # Total bandwidth to/from this memory (bytes/s)
system.mem_ctrls.bw_total::cpu04.data         3217278                       # Total bandwidth to/from this memory (bytes/s)
system.mem_ctrls.bw_total::cpu05.inst          480191                       # Total bandwidth to/from this memory (bytes/s)
system.mem_ctrls.bw_total::cpu05.data         4945964                       # Total bandwidth to/from this memory (bytes/s)
system.mem_ctrls.bw_total::cpu06.inst           96038                       # Total bandwidth to/from this memory (bytes/s)
system.mem_ctrls.bw_total::cpu06.data         3361335                       # Total bandwidth to/from this memory (bytes/s)
system.mem_ctrls.bw_total::cpu07.inst          144057                       # Total bandwidth to/from this memory (bytes/s)
system.mem_ctrls.bw_total::cpu07.data         4225678                       # Total bandwidth to/from this memory (bytes/s)
system.mem_ctrls.bw_total::cpu08.inst          384153                       # Total bandwidth to/from this memory (bytes/s)
system.mem_ctrls.bw_total::cpu08.data         4129640                       # Total bandwidth to/from this memory (bytes/s)
system.mem_ctrls.bw_total::cpu09.inst          288114                       # Total bandwidth to/from this memory (bytes/s)
system.mem_ctrls.bw_total::cpu09.data         3361335                       # Total bandwidth to/from this memory (bytes/s)
system.mem_ctrls.bw_total::cpu10.inst         1920763                       # Total bandwidth to/from this memory (bytes/s)
system.mem_ctrls.bw_total::cpu10.data         4513792                       # Total bandwidth to/from this memory (bytes/s)
system.mem_ctrls.bw_total::cpu11.inst          720286                       # Total bandwidth to/from this memory (bytes/s)
system.mem_ctrls.bw_total::cpu11.data         4417754                       # Total bandwidth to/from this memory (bytes/s)
system.mem_ctrls.bw_total::cpu12.inst         4321716                       # Total bandwidth to/from this memory (bytes/s)
system.mem_ctrls.bw_total::cpu12.data         4273697                       # Total bandwidth to/from this memory (bytes/s)
system.mem_ctrls.bw_total::cpu13.inst          960381                       # Total bandwidth to/from this memory (bytes/s)
system.mem_ctrls.bw_total::cpu13.data         4081621                       # Total bandwidth to/from this memory (bytes/s)
system.mem_ctrls.bw_total::cpu14.inst          528210                       # Total bandwidth to/from this memory (bytes/s)
system.mem_ctrls.bw_total::cpu14.data         3985583                       # Total bandwidth to/from this memory (bytes/s)
system.mem_ctrls.bw_total::cpu15.inst          576229                       # Total bandwidth to/from this memory (bytes/s)
system.mem_ctrls.bw_total::cpu15.data         4081621                       # Total bandwidth to/from this memory (bytes/s)
system.mem_ctrls.bw_total::total            454692560                       # Total bandwidth to/from this memory (bytes/s)
system.cpu00.branchPred.lookups                132260                       # Number of BP lookups
system.cpu00.branchPred.condPredicted           73675                       # Number of conditional branches predicted
system.cpu00.branchPred.condIncorrect            5649                       # Number of conditional branches incorrect
system.cpu00.branchPred.BTBLookups              87033                       # Number of BTB lookups
system.cpu00.branchPred.BTBHits                 66261                       # Number of BTB hits
system.cpu00.branchPred.BTBCorrect                  0                       # Number of correct BTB predictions (this stat may not work properly.
system.cpu00.branchPred.BTBHitPct           76.133191                       # BTB Hit Percentage
system.cpu00.branchPred.usedRAS                 26401                       # Number of times the RAS was used to get a target.
system.cpu00.branchPred.RASInCorrect               79                       # Number of incorrect RAS predictions.
system.cpu00.branchPred.indirectLookups          3624                       # Number of indirect predictor lookups.
system.cpu00.branchPred.indirectHits             2885                       # Number of indirect target hits.
system.cpu00.branchPred.indirectMisses            739                       # Number of indirect misses.
system.cpu00.branchPredindirectMispredicted          251                       # Number of mispredicted indirect branches.
system.cpu_voltage_domain.voltage                   1                       # Voltage in Volts
system.cpu_clk_domain.clock                      1242                       # Clock period in ticks
system.cpu00.dtb.fetch_hits                         0                       # ITB hits
system.cpu00.dtb.fetch_misses                       0                       # ITB misses
system.cpu00.dtb.fetch_acv                          0                       # ITB acv
system.cpu00.dtb.fetch_accesses                     0                       # ITB accesses
system.cpu00.dtb.read_hits                     179794                       # DTB read hits
system.cpu00.dtb.read_misses                      610                       # DTB read misses
system.cpu00.dtb.read_acv                           0                       # DTB read access violations
system.cpu00.dtb.read_accesses                 180404                       # DTB read accesses
system.cpu00.dtb.write_hits                    127619                       # DTB write hits
system.cpu00.dtb.write_misses                    1074                       # DTB write misses
system.cpu00.dtb.write_acv                          0                       # DTB write access violations
system.cpu00.dtb.write_accesses                128693                       # DTB write accesses
system.cpu00.dtb.data_hits                     307413                       # DTB hits
system.cpu00.dtb.data_misses                     1684                       # DTB misses
system.cpu00.dtb.data_acv                           0                       # DTB access violations
system.cpu00.dtb.data_accesses                 309097                       # DTB accesses
system.cpu00.itb.fetch_hits                    148818                       # ITB hits
system.cpu00.itb.fetch_misses                     154                       # ITB misses
system.cpu00.itb.fetch_acv                          0                       # ITB acv
system.cpu00.itb.fetch_accesses                148972                       # ITB accesses
system.cpu00.itb.read_hits                          0                       # DTB read hits
system.cpu00.itb.read_misses                        0                       # DTB read misses
system.cpu00.itb.read_acv                           0                       # DTB read access violations
system.cpu00.itb.read_accesses                      0                       # DTB read accesses
system.cpu00.itb.write_hits                         0                       # DTB write hits
system.cpu00.itb.write_misses                       0                       # DTB write misses
system.cpu00.itb.write_acv                          0                       # DTB write access violations
system.cpu00.itb.write_accesses                     0                       # DTB write accesses
system.cpu00.itb.data_hits                          0                       # DTB hits
system.cpu00.itb.data_misses                        0                       # DTB misses
system.cpu00.itb.data_acv                           0                       # DTB access violations
system.cpu00.itb.data_accesses                      0                       # DTB accesses
system.cpu00.workload.num_syscalls               3571                       # Number of system calls
system.cpu00.numCycles                         973473                       # number of cpu cycles simulated
system.cpu00.numWorkItemsStarted                    0                       # number of work items this cpu started
system.cpu00.numWorkItemsCompleted                  0                       # number of work items this cpu completed
system.cpu00.fetch.icacheStallCycles            80403                       # Number of cycles fetch is stalled on an Icache miss
system.cpu00.fetch.Insts                      1187918                       # Number of instructions fetch has processed
system.cpu00.fetch.Branches                    132260                       # Number of branches that fetch encountered
system.cpu00.fetch.predictedBranches            95547                       # Number of branches that fetch has predicted taken
system.cpu00.fetch.Cycles                      694498                       # Number of cycles fetch has run and was not squashing or blocked
system.cpu00.fetch.SquashCycles                 12660                       # Number of cycles fetch has spent squashing
system.cpu00.fetch.MiscStallCycles                496                       # Number of cycles fetch has spent waiting on interrupts, or bad addresses, or out of MSHRs
system.cpu00.fetch.PendingTrapStallCycles         5951                       # Number of stall cycles due to pending traps
system.cpu00.fetch.IcacheWaitRetryStallCycles          532                       # Number of stall cycles due to full MSHR
system.cpu00.fetch.CacheLines                  148818                       # Number of cache lines fetched
system.cpu00.fetch.IcacheSquashes                2561                       # Number of outstanding Icache misses that were squashed
system.cpu00.fetch.rateDist::samples           788210                       # Number of instructions fetched each cycle (Total)
system.cpu00.fetch.rateDist::mean            1.507109                       # Number of instructions fetched each cycle (Total)
system.cpu00.fetch.rateDist::stdev           2.757435                       # Number of instructions fetched each cycle (Total)
system.cpu00.fetch.rateDist::underflows             0      0.00%      0.00% # Number of instructions fetched each cycle (Total)
system.cpu00.fetch.rateDist::0                 570997     72.44%     72.44% # Number of instructions fetched each cycle (Total)
system.cpu00.fetch.rateDist::1                  16360      2.08%     74.52% # Number of instructions fetched each cycle (Total)
system.cpu00.fetch.rateDist::2                  17277      2.19%     76.71% # Number of instructions fetched each cycle (Total)
system.cpu00.fetch.rateDist::3                  16863      2.14%     78.85% # Number of instructions fetched each cycle (Total)
system.cpu00.fetch.rateDist::4                  37832      4.80%     83.65% # Number of instructions fetched each cycle (Total)
system.cpu00.fetch.rateDist::5                  15744      2.00%     85.65% # Number of instructions fetched each cycle (Total)
system.cpu00.fetch.rateDist::6                  18723      2.38%     88.02% # Number of instructions fetched each cycle (Total)
system.cpu00.fetch.rateDist::7                  11283      1.43%     89.45% # Number of instructions fetched each cycle (Total)
system.cpu00.fetch.rateDist::8                  83131     10.55%    100.00% # Number of instructions fetched each cycle (Total)
system.cpu00.fetch.rateDist::overflows              0      0.00%    100.00% # Number of instructions fetched each cycle (Total)
system.cpu00.fetch.rateDist::min_value              0                       # Number of instructions fetched each cycle (Total)
system.cpu00.fetch.rateDist::max_value              8                       # Number of instructions fetched each cycle (Total)
system.cpu00.fetch.rateDist::total             788210                       # Number of instructions fetched each cycle (Total)
system.cpu00.fetch.branchRate                0.135864                       # Number of branch fetches per cycle
system.cpu00.fetch.rate                      1.220289                       # Number of inst fetches per cycle
system.cpu00.decode.IdleCycles                  87873                       # Number of cycles decode is idle
system.cpu00.decode.BlockedCycles              532837                       # Number of cycles decode is blocked
system.cpu00.decode.RunCycles                  129995                       # Number of cycles decode is running
system.cpu00.decode.UnblockCycles               32914                       # Number of cycles decode is unblocking
system.cpu00.decode.SquashCycles                 4591                       # Number of cycles decode is squashing
system.cpu00.decode.BranchResolved              26462                       # Number of times decode resolved a branch
system.cpu00.decode.BranchMispred                1785                       # Number of times decode detected a branch misprediction
system.cpu00.decode.DecodedInsts              1124186                       # Number of instructions handled by decode
system.cpu00.decode.SquashedInsts                7321                       # Number of squashed instructions handled by decode
system.cpu00.rename.SquashCycles                 4591                       # Number of cycles rename is squashing
system.cpu00.rename.IdleCycles                 103629                       # Number of cycles rename is idle
system.cpu00.rename.BlockCycles                 86829                       # Number of cycles rename is blocking
system.cpu00.rename.serializeStallCycles       212867                       # count of cycles rename stalled for serializing inst
system.cpu00.rename.RunCycles                  147277                       # Number of cycles rename is running
system.cpu00.rename.UnblockCycles              233017                       # Number of cycles rename is unblocking
system.cpu00.rename.RenamedInsts              1104900                       # Number of instructions processed by rename
system.cpu00.rename.ROBFullEvents                2589                       # Number of times rename has blocked due to ROB full
system.cpu00.rename.IQFullEvents                21716                       # Number of times rename has blocked due to IQ full
system.cpu00.rename.LQFullEvents                 1434                       # Number of times rename has blocked due to LQ full
system.cpu00.rename.SQFullEvents               199129                       # Number of times rename has blocked due to SQ full
system.cpu00.rename.RenamedOperands            757072                       # Number of destination operands rename has renamed
system.cpu00.rename.RenameLookups             1368037                       # Number of register rename lookups that rename has made
system.cpu00.rename.int_rename_lookups        1209972                       # Number of integer rename lookups
system.cpu00.rename.fp_rename_lookups          155778                       # Number of floating rename lookups
system.cpu00.rename.CommittedMaps              668948                       # Number of HB maps that are committed
system.cpu00.rename.UndoneMaps                  88124                       # Number of HB maps that are undone due to squashing
system.cpu00.rename.serializingInsts             4016                       # count of serializing insts renamed
system.cpu00.rename.tempSerializingInsts         1653                       # count of temporary serializing insts renamed
system.cpu00.rename.skidInsts                  146553                       # count of insts added to the skid buffer
system.cpu00.memDep0.insertedLoads             179180                       # Number of loads inserted to the mem dependence unit.
system.cpu00.memDep0.insertedStores            135193                       # Number of stores inserted to the mem dependence unit.
system.cpu00.memDep0.conflictingLoads           31902                       # Number of conflicting loads.
system.cpu00.memDep0.conflictingStores          12125                       # Number of conflicting stores.
system.cpu00.iq.iqInstsAdded                   967435                       # Number of instructions added to the IQ (excludes non-spec)
system.cpu00.iq.iqNonSpecInstsAdded              2732                       # Number of non-speculative instructions added to the IQ
system.cpu00.iq.iqInstsIssued                  950456                       # Number of instructions issued
system.cpu00.iq.iqSquashedInstsIssued            1681                       # Number of squashed instructions issued
system.cpu00.iq.iqSquashedInstsExamined        100118                       # Number of squashed instructions iterated over during squash; mainly for profiling
system.cpu00.iq.iqSquashedOperandsExamined        50159                       # Number of squashed operands that are examined and possibly removed from graph
system.cpu00.iq.iqSquashedNonSpecRemoved          356                       # Number of squashed non-spec instructions that were removed
system.cpu00.iq.issued_per_cycle::samples       788210                       # Number of insts issued each cycle
system.cpu00.iq.issued_per_cycle::mean       1.205841                       # Number of insts issued each cycle
system.cpu00.iq.issued_per_cycle::stdev      1.959518                       # Number of insts issued each cycle
system.cpu00.iq.issued_per_cycle::underflows            0      0.00%      0.00% # Number of insts issued each cycle
system.cpu00.iq.issued_per_cycle::0            491954     62.41%     62.41% # Number of insts issued each cycle
system.cpu00.iq.issued_per_cycle::1             72775      9.23%     71.65% # Number of insts issued each cycle
system.cpu00.iq.issued_per_cycle::2             60137      7.63%     79.28% # Number of insts issued each cycle
system.cpu00.iq.issued_per_cycle::3             45032      5.71%     84.99% # Number of insts issued each cycle
system.cpu00.iq.issued_per_cycle::4             43395      5.51%     90.50% # Number of insts issued each cycle
system.cpu00.iq.issued_per_cycle::5             28310      3.59%     94.09% # Number of insts issued each cycle
system.cpu00.iq.issued_per_cycle::6             27094      3.44%     97.52% # Number of insts issued each cycle
system.cpu00.iq.issued_per_cycle::7             11487      1.46%     98.98% # Number of insts issued each cycle
system.cpu00.iq.issued_per_cycle::8              8026      1.02%    100.00% # Number of insts issued each cycle
system.cpu00.iq.issued_per_cycle::overflows            0      0.00%    100.00% # Number of insts issued each cycle
system.cpu00.iq.issued_per_cycle::min_value            0                       # Number of insts issued each cycle
system.cpu00.iq.issued_per_cycle::max_value            8                       # Number of insts issued each cycle
system.cpu00.iq.issued_per_cycle::total        788210                       # Number of insts issued each cycle
system.cpu00.iq.fu_full::No_OpClass                 0      0.00%      0.00% # attempts to use FU when none available
system.cpu00.iq.fu_full::IntAlu                  4989     16.35%     16.35% # attempts to use FU when none available
system.cpu00.iq.fu_full::IntMult                 4097     13.43%     29.78% # attempts to use FU when none available
system.cpu00.iq.fu_full::IntDiv                     0      0.00%     29.78% # attempts to use FU when none available
system.cpu00.iq.fu_full::FloatAdd                  64      0.21%     29.99% # attempts to use FU when none available
system.cpu00.iq.fu_full::FloatCmp                   0      0.00%     29.99% # attempts to use FU when none available
system.cpu00.iq.fu_full::FloatCvt                   0      0.00%     29.99% # attempts to use FU when none available
system.cpu00.iq.fu_full::FloatMult               5910     19.37%     49.36% # attempts to use FU when none available
system.cpu00.iq.fu_full::FloatDiv                   0      0.00%     49.36% # attempts to use FU when none available
system.cpu00.iq.fu_full::FloatSqrt                  0      0.00%     49.36% # attempts to use FU when none available
system.cpu00.iq.fu_full::SimdAdd                    0      0.00%     49.36% # attempts to use FU when none available
system.cpu00.iq.fu_full::SimdAddAcc                 0      0.00%     49.36% # attempts to use FU when none available
system.cpu00.iq.fu_full::SimdAlu                    0      0.00%     49.36% # attempts to use FU when none available
system.cpu00.iq.fu_full::SimdCmp                    0      0.00%     49.36% # attempts to use FU when none available
system.cpu00.iq.fu_full::SimdCvt                    0      0.00%     49.36% # attempts to use FU when none available
system.cpu00.iq.fu_full::SimdMisc                   0      0.00%     49.36% # attempts to use FU when none available
system.cpu00.iq.fu_full::SimdMult                   0      0.00%     49.36% # attempts to use FU when none available
system.cpu00.iq.fu_full::SimdMultAcc                0      0.00%     49.36% # attempts to use FU when none available
system.cpu00.iq.fu_full::SimdShift                  0      0.00%     49.36% # attempts to use FU when none available
system.cpu00.iq.fu_full::SimdShiftAcc               0      0.00%     49.36% # attempts to use FU when none available
system.cpu00.iq.fu_full::SimdSqrt                   0      0.00%     49.36% # attempts to use FU when none available
system.cpu00.iq.fu_full::SimdFloatAdd               0      0.00%     49.36% # attempts to use FU when none available
system.cpu00.iq.fu_full::SimdFloatAlu               0      0.00%     49.36% # attempts to use FU when none available
system.cpu00.iq.fu_full::SimdFloatCmp               0      0.00%     49.36% # attempts to use FU when none available
system.cpu00.iq.fu_full::SimdFloatCvt               0      0.00%     49.36% # attempts to use FU when none available
system.cpu00.iq.fu_full::SimdFloatDiv               0      0.00%     49.36% # attempts to use FU when none available
system.cpu00.iq.fu_full::SimdFloatMisc              0      0.00%     49.36% # attempts to use FU when none available
system.cpu00.iq.fu_full::SimdFloatMult              0      0.00%     49.36% # attempts to use FU when none available
system.cpu00.iq.fu_full::SimdFloatMultAcc            0      0.00%     49.36% # attempts to use FU when none available
system.cpu00.iq.fu_full::SimdFloatSqrt              0      0.00%     49.36% # attempts to use FU when none available
system.cpu00.iq.fu_full::MemRead                 9483     31.08%     80.45% # attempts to use FU when none available
system.cpu00.iq.fu_full::MemWrite                5966     19.55%    100.00% # attempts to use FU when none available
system.cpu00.iq.fu_full::IprAccess                  0      0.00%    100.00% # attempts to use FU when none available
system.cpu00.iq.fu_full::InstPrefetch               0      0.00%    100.00% # attempts to use FU when none available
system.cpu00.iq.FU_type_0::No_OpClass               0      0.00%      0.00% # Type of FU issued
system.cpu00.iq.FU_type_0::IntAlu              550942     57.97%     57.97% # Type of FU issued
system.cpu00.iq.FU_type_0::IntMult              12785      1.35%     59.31% # Type of FU issued
system.cpu00.iq.FU_type_0::IntDiv                   0      0.00%     59.31% # Type of FU issued
system.cpu00.iq.FU_type_0::FloatAdd             35720      3.76%     63.07% # Type of FU issued
system.cpu00.iq.FU_type_0::FloatCmp                 8      0.00%     63.07% # Type of FU issued
system.cpu00.iq.FU_type_0::FloatCvt                 0      0.00%     63.07% # Type of FU issued
system.cpu00.iq.FU_type_0::FloatMult            37109      3.90%     66.97% # Type of FU issued
system.cpu00.iq.FU_type_0::FloatDiv                16      0.00%     66.98% # Type of FU issued
system.cpu00.iq.FU_type_0::FloatSqrt                0      0.00%     66.98% # Type of FU issued
system.cpu00.iq.FU_type_0::SimdAdd                  0      0.00%     66.98% # Type of FU issued
system.cpu00.iq.FU_type_0::SimdAddAcc               0      0.00%     66.98% # Type of FU issued
system.cpu00.iq.FU_type_0::SimdAlu                  0      0.00%     66.98% # Type of FU issued
system.cpu00.iq.FU_type_0::SimdCmp                  0      0.00%     66.98% # Type of FU issued
system.cpu00.iq.FU_type_0::SimdCvt                  0      0.00%     66.98% # Type of FU issued
system.cpu00.iq.FU_type_0::SimdMisc                 0      0.00%     66.98% # Type of FU issued
system.cpu00.iq.FU_type_0::SimdMult                 0      0.00%     66.98% # Type of FU issued
system.cpu00.iq.FU_type_0::SimdMultAcc              0      0.00%     66.98% # Type of FU issued
system.cpu00.iq.FU_type_0::SimdShift                0      0.00%     66.98% # Type of FU issued
system.cpu00.iq.FU_type_0::SimdShiftAcc             0      0.00%     66.98% # Type of FU issued
system.cpu00.iq.FU_type_0::SimdSqrt                 0      0.00%     66.98% # Type of FU issued
system.cpu00.iq.FU_type_0::SimdFloatAdd             0      0.00%     66.98% # Type of FU issued
system.cpu00.iq.FU_type_0::SimdFloatAlu             0      0.00%     66.98% # Type of FU issued
system.cpu00.iq.FU_type_0::SimdFloatCmp             0      0.00%     66.98% # Type of FU issued
system.cpu00.iq.FU_type_0::SimdFloatCvt             0      0.00%     66.98% # Type of FU issued
system.cpu00.iq.FU_type_0::SimdFloatDiv             0      0.00%     66.98% # Type of FU issued
system.cpu00.iq.FU_type_0::SimdFloatMisc            0      0.00%     66.98% # Type of FU issued
system.cpu00.iq.FU_type_0::SimdFloatMult            0      0.00%     66.98% # Type of FU issued
system.cpu00.iq.FU_type_0::SimdFloatMultAcc            0      0.00%     66.98% # Type of FU issued
system.cpu00.iq.FU_type_0::SimdFloatSqrt            0      0.00%     66.98% # Type of FU issued
system.cpu00.iq.FU_type_0::MemRead             183614     19.32%     86.29% # Type of FU issued
system.cpu00.iq.FU_type_0::MemWrite            130262     13.71%    100.00% # Type of FU issued
system.cpu00.iq.FU_type_0::IprAccess                0      0.00%    100.00% # Type of FU issued
system.cpu00.iq.FU_type_0::InstPrefetch             0      0.00%    100.00% # Type of FU issued
system.cpu00.iq.FU_type_0::total               950456                       # Type of FU issued
system.cpu00.iq.rate                         0.976356                       # Inst issue rate
system.cpu00.iq.fu_busy_cnt                     30509                       # FU busy when requested
system.cpu00.iq.fu_busy_rate                 0.032099                       # FU busy rate (busy events/executed inst)
system.cpu00.iq.int_inst_queue_reads          2478095                       # Number of integer instruction queue reads
system.cpu00.iq.int_inst_queue_writes          947459                       # Number of integer instruction queue writes
system.cpu00.iq.int_inst_queue_wakeup_accesses       813333                       # Number of integer instruction queue wakeup accesses
system.cpu00.iq.fp_inst_queue_reads            243217                       # Number of floating instruction queue reads
system.cpu00.iq.fp_inst_queue_writes           123246                       # Number of floating instruction queue writes
system.cpu00.iq.fp_inst_queue_wakeup_accesses       116962                       # Number of floating instruction queue wakeup accesses
system.cpu00.iq.int_alu_accesses               856031                       # Number of integer alu accesses
system.cpu00.iq.fp_alu_accesses                124934                       # Number of floating point alu accesses
system.cpu00.iew.lsq.thread0.forwLoads          21052                       # Number of loads that had data forwarded from stores
system.cpu00.iew.lsq.thread0.invAddrLoads            0                       # Number of loads ignored due to an invalid address
system.cpu00.iew.lsq.thread0.squashedLoads        18176                       # Number of loads squashed
system.cpu00.iew.lsq.thread0.ignoredResponses           46                       # Number of memory responses ignored because the instruction is squashed
system.cpu00.iew.lsq.thread0.memOrderViolation          428                       # Number of memory ordering violations
system.cpu00.iew.lsq.thread0.squashedStores        15667                       # Number of stores squashed
system.cpu00.iew.lsq.thread0.invAddrSwpfs            0                       # Number of software prefetches ignored due to an invalid address
system.cpu00.iew.lsq.thread0.blockedLoads            0                       # Number of blocked loads due to partial load-store forwarding
system.cpu00.iew.lsq.thread0.rescheduledLoads          221                       # Number of loads that were rescheduled
system.cpu00.iew.lsq.thread0.cacheBlocked         8754                       # Number of times an access to memory failed due to the cache being blocked
system.cpu00.iew.iewIdleCycles                      0                       # Number of cycles IEW is idle
system.cpu00.iew.iewSquashCycles                 4591                       # Number of cycles IEW is squashing
system.cpu00.iew.iewBlockCycles                 21766                       # Number of cycles IEW is blocking
system.cpu00.iew.iewUnblockCycles               57624                       # Number of cycles IEW is unblocking
system.cpu00.iew.iewDispatchedInsts           1077743                       # Number of instructions dispatched to IQ
system.cpu00.iew.iewDispSquashedInsts            1590                       # Number of squashed instructions skipped by dispatch
system.cpu00.iew.iewDispLoadInsts              179180                       # Number of dispatched load instructions
system.cpu00.iew.iewDispStoreInsts             135193                       # Number of dispatched store instructions
system.cpu00.iew.iewDispNonSpecInsts             1565                       # Number of dispatched non-speculative instructions
system.cpu00.iew.iewIQFullEvents                  104                       # Number of times the IQ has become full, causing a stall
system.cpu00.iew.iewLSQFullEvents               57426                       # Number of times the LSQ has become full, causing a stall
system.cpu00.iew.memOrderViolationEvents          428                       # Number of memory order violations
system.cpu00.iew.predictedTakenIncorrect         1550                       # Number of branches that were predicted taken incorrectly
system.cpu00.iew.predictedNotTakenIncorrect         3123                       # Number of branches that were predicted not taken incorrectly
system.cpu00.iew.branchMispredicts               4673                       # Number of branch mispredicts detected at execute
system.cpu00.iew.iewExecutedInsts              942809                       # Number of executed instructions
system.cpu00.iew.iewExecLoadInsts              180422                       # Number of load instructions executed
system.cpu00.iew.iewExecSquashedInsts            7647                       # Number of squashed instructions skipped in execute
system.cpu00.iew.exec_swp                           0                       # number of swp insts executed
system.cpu00.iew.exec_nop                      107576                       # number of nop insts executed
system.cpu00.iew.exec_refs                     309124                       # number of memory reference insts executed
system.cpu00.iew.exec_branches                 110360                       # Number of branches executed
system.cpu00.iew.exec_stores                   128702                       # Number of stores executed
system.cpu00.iew.exec_rate                   0.968500                       # Inst execution rate
system.cpu00.iew.wb_sent                       933915                       # cumulative count of insts sent to commit
system.cpu00.iew.wb_count                      930295                       # cumulative count of insts written-back
system.cpu00.iew.wb_producers                  545424                       # num instructions producing a value
system.cpu00.iew.wb_consumers                  776862                       # num instructions consuming a value
system.cpu00.iew.wb_rate                     0.955645                       # insts written-back per cycle
system.cpu00.iew.wb_fanout                   0.702086                       # average fanout of values written-back
system.cpu00.commit.commitSquashedInsts        103978                       # The number of squashed insts skipped by commit
system.cpu00.commit.commitNonSpecStalls          2376                       # The number of times commit has been forced to stall to communicate backwards
system.cpu00.commit.branchMispredicts            3910                       # The number of times a branch was mispredicted
system.cpu00.commit.committed_per_cycle::samples       771912                       # Number of insts commited each cycle
system.cpu00.commit.committed_per_cycle::mean     1.254947                       # Number of insts commited each cycle
system.cpu00.commit.committed_per_cycle::stdev     2.337688                       # Number of insts commited each cycle
system.cpu00.commit.committed_per_cycle::underflows            0      0.00%      0.00% # Number of insts commited each cycle
system.cpu00.commit.committed_per_cycle::0       523810     67.86%     67.86% # Number of insts commited each cycle
system.cpu00.commit.committed_per_cycle::1        51257      6.64%     74.50% # Number of insts commited each cycle
system.cpu00.commit.committed_per_cycle::2        51241      6.64%     81.14% # Number of insts commited each cycle
system.cpu00.commit.committed_per_cycle::3        30111      3.90%     85.04% # Number of insts commited each cycle
system.cpu00.commit.committed_per_cycle::4        35492      4.60%     89.64% # Number of insts commited each cycle
system.cpu00.commit.committed_per_cycle::5         8863      1.15%     90.78% # Number of insts commited each cycle
system.cpu00.commit.committed_per_cycle::6        12879      1.67%     92.45% # Number of insts commited each cycle
system.cpu00.commit.committed_per_cycle::7         4992      0.65%     93.10% # Number of insts commited each cycle
system.cpu00.commit.committed_per_cycle::8        53267      6.90%    100.00% # Number of insts commited each cycle
system.cpu00.commit.committed_per_cycle::overflows            0      0.00%    100.00% # Number of insts commited each cycle
system.cpu00.commit.committed_per_cycle::min_value            0                       # Number of insts commited each cycle
system.cpu00.commit.committed_per_cycle::max_value            8                       # Number of insts commited each cycle
system.cpu00.commit.committed_per_cycle::total       771912                       # Number of insts commited each cycle
system.cpu00.commit.committedInsts             968709                       # Number of instructions committed
system.cpu00.commit.committedOps               968709                       # Number of ops (including micro ops) committed
system.cpu00.commit.swp_count                       0                       # Number of s/w prefetches committed
system.cpu00.commit.refs                       280530                       # Number of memory references committed
system.cpu00.commit.loads                      161004                       # Number of loads committed
system.cpu00.commit.membars                      1038                       # Number of memory barriers committed
system.cpu00.commit.branches                   100156                       # Number of branches committed
system.cpu00.commit.fp_insts                   116058                       # Number of committed floating point instructions.
system.cpu00.commit.int_insts                  792176                       # Number of committed integer instructions.
system.cpu00.commit.function_calls              22221                       # Number of function calls committed.
system.cpu00.commit.op_class_0::No_OpClass        98661     10.18%     10.18% # Class of committed instruction
system.cpu00.commit.op_class_0::IntAlu         503353     51.96%     62.15% # Class of committed instruction
system.cpu00.commit.op_class_0::IntMult         12689      1.31%     63.46% # Class of committed instruction
system.cpu00.commit.op_class_0::IntDiv              0      0.00%     63.46% # Class of committed instruction
system.cpu00.commit.op_class_0::FloatAdd        35480      3.66%     67.12% # Class of committed instruction
system.cpu00.commit.op_class_0::FloatCmp            8      0.00%     67.12% # Class of committed instruction
system.cpu00.commit.op_class_0::FloatCvt            0      0.00%     67.12% # Class of committed instruction
system.cpu00.commit.op_class_0::FloatMult        36935      3.81%     70.93% # Class of committed instruction
system.cpu00.commit.op_class_0::FloatDiv           14      0.00%     70.93% # Class of committed instruction
system.cpu00.commit.op_class_0::FloatSqrt            0      0.00%     70.93% # Class of committed instruction
system.cpu00.commit.op_class_0::SimdAdd             0      0.00%     70.93% # Class of committed instruction
system.cpu00.commit.op_class_0::SimdAddAcc            0      0.00%     70.93% # Class of committed instruction
system.cpu00.commit.op_class_0::SimdAlu             0      0.00%     70.93% # Class of committed instruction
system.cpu00.commit.op_class_0::SimdCmp             0      0.00%     70.93% # Class of committed instruction
system.cpu00.commit.op_class_0::SimdCvt             0      0.00%     70.93% # Class of committed instruction
system.cpu00.commit.op_class_0::SimdMisc            0      0.00%     70.93% # Class of committed instruction
system.cpu00.commit.op_class_0::SimdMult            0      0.00%     70.93% # Class of committed instruction
system.cpu00.commit.op_class_0::SimdMultAcc            0      0.00%     70.93% # Class of committed instruction
system.cpu00.commit.op_class_0::SimdShift            0      0.00%     70.93% # Class of committed instruction
system.cpu00.commit.op_class_0::SimdShiftAcc            0      0.00%     70.93% # Class of committed instruction
system.cpu00.commit.op_class_0::SimdSqrt            0      0.00%     70.93% # Class of committed instruction
system.cpu00.commit.op_class_0::SimdFloatAdd            0      0.00%     70.93% # Class of committed instruction
system.cpu00.commit.op_class_0::SimdFloatAlu            0      0.00%     70.93% # Class of committed instruction
system.cpu00.commit.op_class_0::SimdFloatCmp            0      0.00%     70.93% # Class of committed instruction
system.cpu00.commit.op_class_0::SimdFloatCvt            0      0.00%     70.93% # Class of committed instruction
system.cpu00.commit.op_class_0::SimdFloatDiv            0      0.00%     70.93% # Class of committed instruction
system.cpu00.commit.op_class_0::SimdFloatMisc            0      0.00%     70.93% # Class of committed instruction
system.cpu00.commit.op_class_0::SimdFloatMult            0      0.00%     70.93% # Class of committed instruction
system.cpu00.commit.op_class_0::SimdFloatMultAcc            0      0.00%     70.93% # Class of committed instruction
system.cpu00.commit.op_class_0::SimdFloatSqrt            0      0.00%     70.93% # Class of committed instruction
system.cpu00.commit.op_class_0::MemRead        162042     16.73%     87.66% # Class of committed instruction
system.cpu00.commit.op_class_0::MemWrite       119527     12.34%    100.00% # Class of committed instruction
system.cpu00.commit.op_class_0::IprAccess            0      0.00%    100.00% # Class of committed instruction
system.cpu00.commit.op_class_0::InstPrefetch            0      0.00%    100.00% # Class of committed instruction
system.cpu00.commit.op_class_0::total          968709                       # Class of committed instruction
system.cpu00.commit.bw_lim_events               53267                       # number cycles where commit BW limit reached
system.cpu00.rob.rob_reads                    1787354                       # The number of ROB reads
system.cpu00.rob.rob_writes                   2161793                       # The number of ROB writes
system.cpu00.timesIdled                          1387                       # Number of times that the entire CPU went into an idle state and unscheduled itself
system.cpu00.idleCycles                        185263                       # Total number of cycles that the CPU has spent unscheduled due to idling
system.cpu00.quiesceCycles                      99639                       # Total number of cycles that CPU has spent quiesced or waiting for an interrupt
system.cpu00.committedInsts                    870048                       # Number of Instructions Simulated
system.cpu00.committedOps                      870048                       # Number of Ops (including micro ops) Simulated
system.cpu00.cpi                             1.118873                       # CPI: Cycles Per Instruction
system.cpu00.cpi_total                       1.118873                       # CPI: Total CPI of All Threads
system.cpu00.ipc                             0.893757                       # IPC: Instructions Per Cycle
system.cpu00.ipc_total                       0.893757                       # IPC: Total IPC of All Threads
system.cpu00.int_regfile_reads                1138869                       # number of integer regfile reads
system.cpu00.int_regfile_writes                612537                       # number of integer regfile writes
system.cpu00.fp_regfile_reads                  151795                       # number of floating regfile reads
system.cpu00.fp_regfile_writes                 102907                       # number of floating regfile writes
system.cpu00.misc_regfile_reads                  5090                       # number of misc regfile reads
system.cpu00.misc_regfile_writes                 2255                       # number of misc regfile writes
system.cpu00.dcache.tags.replacements           11250                       # number of replacements
system.cpu00.dcache.tags.tagsinuse         124.512325                       # Cycle average of tags in use
system.cpu00.dcache.tags.total_refs            229879                       # Total number of references to valid blocks.
system.cpu00.dcache.tags.sampled_refs           11378                       # Sample count of references to valid blocks.
system.cpu00.dcache.tags.avg_refs           20.203814                       # Average number of references to valid blocks.
system.cpu00.dcache.tags.warmup_cycle        86323968                       # Cycle when the warmup percentage was hit.
system.cpu00.dcache.tags.occ_blocks::cpu00.data   124.512325                       # Average occupied blocks per requestor
system.cpu00.dcache.tags.occ_percent::cpu00.data     0.972753                       # Average percentage of cache occupancy
system.cpu00.dcache.tags.occ_percent::total     0.972753                       # Average percentage of cache occupancy
system.cpu00.dcache.tags.occ_task_id_blocks::1024          128                       # Occupied blocks per task id
system.cpu00.dcache.tags.age_task_id_blocks_1024::0           58                       # Occupied blocks per task id
system.cpu00.dcache.tags.age_task_id_blocks_1024::1           61                       # Occupied blocks per task id
system.cpu00.dcache.tags.age_task_id_blocks_1024::2            9                       # Occupied blocks per task id
system.cpu00.dcache.tags.occ_task_id_percent::1024            1                       # Percentage of cache occupancy per task id
system.cpu00.dcache.tags.tag_accesses         1096483                       # Number of tag accesses
system.cpu00.dcache.tags.data_accesses        1096483                       # Number of data accesses
system.cpu00.dcache.ReadReq_hits::cpu00.data       142289                       # number of ReadReq hits
system.cpu00.dcache.ReadReq_hits::total        142289                       # number of ReadReq hits
system.cpu00.dcache.WriteReq_hits::cpu00.data        85379                       # number of WriteReq hits
system.cpu00.dcache.WriteReq_hits::total        85379                       # number of WriteReq hits
system.cpu00.dcache.LoadLockedReq_hits::cpu00.data          956                       # number of LoadLockedReq hits
system.cpu00.dcache.LoadLockedReq_hits::total          956                       # number of LoadLockedReq hits
system.cpu00.dcache.StoreCondReq_hits::cpu00.data         1101                       # number of StoreCondReq hits
system.cpu00.dcache.StoreCondReq_hits::total         1101                       # number of StoreCondReq hits
system.cpu00.dcache.demand_hits::cpu00.data       227668                       # number of demand (read+write) hits
system.cpu00.dcache.demand_hits::total         227668                       # number of demand (read+write) hits
system.cpu00.dcache.overall_hits::cpu00.data       227668                       # number of overall hits
system.cpu00.dcache.overall_hits::total        227668                       # number of overall hits
system.cpu00.dcache.ReadReq_misses::cpu00.data         8198                       # number of ReadReq misses
system.cpu00.dcache.ReadReq_misses::total         8198                       # number of ReadReq misses
system.cpu00.dcache.WriteReq_misses::cpu00.data        33023                       # number of WriteReq misses
system.cpu00.dcache.WriteReq_misses::total        33023                       # number of WriteReq misses
system.cpu00.dcache.LoadLockedReq_misses::cpu00.data          236                       # number of LoadLockedReq misses
system.cpu00.dcache.LoadLockedReq_misses::total          236                       # number of LoadLockedReq misses
system.cpu00.dcache.StoreCondReq_misses::cpu00.data           22                       # number of StoreCondReq misses
system.cpu00.dcache.StoreCondReq_misses::total           22                       # number of StoreCondReq misses
system.cpu00.dcache.demand_misses::cpu00.data        41221                       # number of demand (read+write) misses
system.cpu00.dcache.demand_misses::total        41221                       # number of demand (read+write) misses
system.cpu00.dcache.overall_misses::cpu00.data        41221                       # number of overall misses
system.cpu00.dcache.overall_misses::total        41221                       # number of overall misses
system.cpu00.dcache.ReadReq_miss_latency::cpu00.data    399905370                       # number of ReadReq miss cycles
system.cpu00.dcache.ReadReq_miss_latency::total    399905370                       # number of ReadReq miss cycles
system.cpu00.dcache.WriteReq_miss_latency::cpu00.data   5422908200                       # number of WriteReq miss cycles
system.cpu00.dcache.WriteReq_miss_latency::total   5422908200                       # number of WriteReq miss cycles
system.cpu00.dcache.LoadLockedReq_miss_latency::cpu00.data      2359800                       # number of LoadLockedReq miss cycles
system.cpu00.dcache.LoadLockedReq_miss_latency::total      2359800                       # number of LoadLockedReq miss cycles
system.cpu00.dcache.StoreCondReq_miss_latency::cpu00.data       363906                       # number of StoreCondReq miss cycles
system.cpu00.dcache.StoreCondReq_miss_latency::total       363906                       # number of StoreCondReq miss cycles
system.cpu00.dcache.demand_miss_latency::cpu00.data   5822813570                       # number of demand (read+write) miss cycles
system.cpu00.dcache.demand_miss_latency::total   5822813570                       # number of demand (read+write) miss cycles
system.cpu00.dcache.overall_miss_latency::cpu00.data   5822813570                       # number of overall miss cycles
system.cpu00.dcache.overall_miss_latency::total   5822813570                       # number of overall miss cycles
system.cpu00.dcache.ReadReq_accesses::cpu00.data       150487                       # number of ReadReq accesses(hits+misses)
system.cpu00.dcache.ReadReq_accesses::total       150487                       # number of ReadReq accesses(hits+misses)
system.cpu00.dcache.WriteReq_accesses::cpu00.data       118402                       # number of WriteReq accesses(hits+misses)
system.cpu00.dcache.WriteReq_accesses::total       118402                       # number of WriteReq accesses(hits+misses)
system.cpu00.dcache.LoadLockedReq_accesses::cpu00.data         1192                       # number of LoadLockedReq accesses(hits+misses)
system.cpu00.dcache.LoadLockedReq_accesses::total         1192                       # number of LoadLockedReq accesses(hits+misses)
system.cpu00.dcache.StoreCondReq_accesses::cpu00.data         1123                       # number of StoreCondReq accesses(hits+misses)
system.cpu00.dcache.StoreCondReq_accesses::total         1123                       # number of StoreCondReq accesses(hits+misses)
system.cpu00.dcache.demand_accesses::cpu00.data       268889                       # number of demand (read+write) accesses
system.cpu00.dcache.demand_accesses::total       268889                       # number of demand (read+write) accesses
system.cpu00.dcache.overall_accesses::cpu00.data       268889                       # number of overall (read+write) accesses
system.cpu00.dcache.overall_accesses::total       268889                       # number of overall (read+write) accesses
system.cpu00.dcache.ReadReq_miss_rate::cpu00.data     0.054476                       # miss rate for ReadReq accesses
system.cpu00.dcache.ReadReq_miss_rate::total     0.054476                       # miss rate for ReadReq accesses
system.cpu00.dcache.WriteReq_miss_rate::cpu00.data     0.278906                       # miss rate for WriteReq accesses
system.cpu00.dcache.WriteReq_miss_rate::total     0.278906                       # miss rate for WriteReq accesses
system.cpu00.dcache.LoadLockedReq_miss_rate::cpu00.data     0.197987                       # miss rate for LoadLockedReq accesses
system.cpu00.dcache.LoadLockedReq_miss_rate::total     0.197987                       # miss rate for LoadLockedReq accesses
system.cpu00.dcache.StoreCondReq_miss_rate::cpu00.data     0.019590                       # miss rate for StoreCondReq accesses
system.cpu00.dcache.StoreCondReq_miss_rate::total     0.019590                       # miss rate for StoreCondReq accesses
system.cpu00.dcache.demand_miss_rate::cpu00.data     0.153301                       # miss rate for demand accesses
system.cpu00.dcache.demand_miss_rate::total     0.153301                       # miss rate for demand accesses
system.cpu00.dcache.overall_miss_rate::cpu00.data     0.153301                       # miss rate for overall accesses
system.cpu00.dcache.overall_miss_rate::total     0.153301                       # miss rate for overall accesses
system.cpu00.dcache.ReadReq_avg_miss_latency::cpu00.data 48780.845328                       # average ReadReq miss latency
system.cpu00.dcache.ReadReq_avg_miss_latency::total 48780.845328                       # average ReadReq miss latency
system.cpu00.dcache.WriteReq_avg_miss_latency::cpu00.data 164216.097871                       # average WriteReq miss latency
system.cpu00.dcache.WriteReq_avg_miss_latency::total 164216.097871                       # average WriteReq miss latency
system.cpu00.dcache.LoadLockedReq_avg_miss_latency::cpu00.data  9999.152542                       # average LoadLockedReq miss latency
system.cpu00.dcache.LoadLockedReq_avg_miss_latency::total  9999.152542                       # average LoadLockedReq miss latency
system.cpu00.dcache.StoreCondReq_avg_miss_latency::cpu00.data 16541.181818                       # average StoreCondReq miss latency
system.cpu00.dcache.StoreCondReq_avg_miss_latency::total 16541.181818                       # average StoreCondReq miss latency
system.cpu00.dcache.demand_avg_miss_latency::cpu00.data 141258.425802                       # average overall miss latency
system.cpu00.dcache.demand_avg_miss_latency::total 141258.425802                       # average overall miss latency
system.cpu00.dcache.overall_avg_miss_latency::cpu00.data 141258.425802                       # average overall miss latency
system.cpu00.dcache.overall_avg_miss_latency::total 141258.425802                       # average overall miss latency
system.cpu00.dcache.blocked_cycles::no_mshrs       147847                       # number of cycles access was blocked
system.cpu00.dcache.blocked_cycles::no_targets            0                       # number of cycles access was blocked
system.cpu00.dcache.blocked::no_mshrs            2674                       # number of cycles access was blocked
system.cpu00.dcache.blocked::no_targets             0                       # number of cycles access was blocked
system.cpu00.dcache.avg_blocked_cycles::no_mshrs    55.290576                       # average number of cycles each access was blocked
system.cpu00.dcache.avg_blocked_cycles::no_targets          nan                       # average number of cycles each access was blocked
system.cpu00.dcache.fast_writes                     0                       # number of fast writes performed
system.cpu00.dcache.cache_copies                    0                       # number of cache copies performed
system.cpu00.dcache.writebacks::writebacks         8397                       # number of writebacks
system.cpu00.dcache.writebacks::total            8397                       # number of writebacks
system.cpu00.dcache.ReadReq_mshr_hits::cpu00.data         2834                       # number of ReadReq MSHR hits
system.cpu00.dcache.ReadReq_mshr_hits::total         2834                       # number of ReadReq MSHR hits
system.cpu00.dcache.WriteReq_mshr_hits::cpu00.data        26738                       # number of WriteReq MSHR hits
system.cpu00.dcache.WriteReq_mshr_hits::total        26738                       # number of WriteReq MSHR hits
system.cpu00.dcache.LoadLockedReq_mshr_hits::cpu00.data          128                       # number of LoadLockedReq MSHR hits
system.cpu00.dcache.LoadLockedReq_mshr_hits::total          128                       # number of LoadLockedReq MSHR hits
system.cpu00.dcache.demand_mshr_hits::cpu00.data        29572                       # number of demand (read+write) MSHR hits
system.cpu00.dcache.demand_mshr_hits::total        29572                       # number of demand (read+write) MSHR hits
system.cpu00.dcache.overall_mshr_hits::cpu00.data        29572                       # number of overall MSHR hits
system.cpu00.dcache.overall_mshr_hits::total        29572                       # number of overall MSHR hits
system.cpu00.dcache.ReadReq_mshr_misses::cpu00.data         5364                       # number of ReadReq MSHR misses
system.cpu00.dcache.ReadReq_mshr_misses::total         5364                       # number of ReadReq MSHR misses
system.cpu00.dcache.WriteReq_mshr_misses::cpu00.data         6285                       # number of WriteReq MSHR misses
system.cpu00.dcache.WriteReq_mshr_misses::total         6285                       # number of WriteReq MSHR misses
system.cpu00.dcache.LoadLockedReq_mshr_misses::cpu00.data          108                       # number of LoadLockedReq MSHR misses
system.cpu00.dcache.LoadLockedReq_mshr_misses::total          108                       # number of LoadLockedReq MSHR misses
system.cpu00.dcache.StoreCondReq_mshr_misses::cpu00.data           22                       # number of StoreCondReq MSHR misses
system.cpu00.dcache.StoreCondReq_mshr_misses::total           22                       # number of StoreCondReq MSHR misses
system.cpu00.dcache.demand_mshr_misses::cpu00.data        11649                       # number of demand (read+write) MSHR misses
system.cpu00.dcache.demand_mshr_misses::total        11649                       # number of demand (read+write) MSHR misses
system.cpu00.dcache.overall_mshr_misses::cpu00.data        11649                       # number of overall MSHR misses
system.cpu00.dcache.overall_mshr_misses::total        11649                       # number of overall MSHR misses
system.cpu00.dcache.ReadReq_mshr_miss_latency::cpu00.data    231986970                       # number of ReadReq MSHR miss cycles
system.cpu00.dcache.ReadReq_mshr_miss_latency::total    231986970                       # number of ReadReq MSHR miss cycles
system.cpu00.dcache.WriteReq_mshr_miss_latency::cpu00.data   1147687357                       # number of WriteReq MSHR miss cycles
system.cpu00.dcache.WriteReq_mshr_miss_latency::total   1147687357                       # number of WriteReq MSHR miss cycles
system.cpu00.dcache.LoadLockedReq_mshr_miss_latency::cpu00.data       833382                       # number of LoadLockedReq MSHR miss cycles
system.cpu00.dcache.LoadLockedReq_mshr_miss_latency::total       833382                       # number of LoadLockedReq MSHR miss cycles
system.cpu00.dcache.StoreCondReq_mshr_miss_latency::cpu00.data       336582                       # number of StoreCondReq MSHR miss cycles
system.cpu00.dcache.StoreCondReq_mshr_miss_latency::total       336582                       # number of StoreCondReq MSHR miss cycles
system.cpu00.dcache.demand_mshr_miss_latency::cpu00.data   1379674327                       # number of demand (read+write) MSHR miss cycles
system.cpu00.dcache.demand_mshr_miss_latency::total   1379674327                       # number of demand (read+write) MSHR miss cycles
system.cpu00.dcache.overall_mshr_miss_latency::cpu00.data   1379674327                       # number of overall MSHR miss cycles
system.cpu00.dcache.overall_mshr_miss_latency::total   1379674327                       # number of overall MSHR miss cycles
system.cpu00.dcache.ReadReq_mshr_miss_rate::cpu00.data     0.035644                       # mshr miss rate for ReadReq accesses
system.cpu00.dcache.ReadReq_mshr_miss_rate::total     0.035644                       # mshr miss rate for ReadReq accesses
system.cpu00.dcache.WriteReq_mshr_miss_rate::cpu00.data     0.053082                       # mshr miss rate for WriteReq accesses
system.cpu00.dcache.WriteReq_mshr_miss_rate::total     0.053082                       # mshr miss rate for WriteReq accesses
system.cpu00.dcache.LoadLockedReq_mshr_miss_rate::cpu00.data     0.090604                       # mshr miss rate for LoadLockedReq accesses
system.cpu00.dcache.LoadLockedReq_mshr_miss_rate::total     0.090604                       # mshr miss rate for LoadLockedReq accesses
system.cpu00.dcache.StoreCondReq_mshr_miss_rate::cpu00.data     0.019590                       # mshr miss rate for StoreCondReq accesses
system.cpu00.dcache.StoreCondReq_mshr_miss_rate::total     0.019590                       # mshr miss rate for StoreCondReq accesses
system.cpu00.dcache.demand_mshr_miss_rate::cpu00.data     0.043323                       # mshr miss rate for demand accesses
system.cpu00.dcache.demand_mshr_miss_rate::total     0.043323                       # mshr miss rate for demand accesses
system.cpu00.dcache.overall_mshr_miss_rate::cpu00.data     0.043323                       # mshr miss rate for overall accesses
system.cpu00.dcache.overall_mshr_miss_rate::total     0.043323                       # mshr miss rate for overall accesses
system.cpu00.dcache.ReadReq_avg_mshr_miss_latency::cpu00.data 43248.875839                       # average ReadReq mshr miss latency
system.cpu00.dcache.ReadReq_avg_mshr_miss_latency::total 43248.875839                       # average ReadReq mshr miss latency
system.cpu00.dcache.WriteReq_avg_mshr_miss_latency::cpu00.data 182607.375815                       # average WriteReq mshr miss latency
system.cpu00.dcache.WriteReq_avg_mshr_miss_latency::total 182607.375815                       # average WriteReq mshr miss latency
system.cpu00.dcache.LoadLockedReq_avg_mshr_miss_latency::cpu00.data  7716.500000                       # average LoadLockedReq mshr miss latency
system.cpu00.dcache.LoadLockedReq_avg_mshr_miss_latency::total  7716.500000                       # average LoadLockedReq mshr miss latency
system.cpu00.dcache.StoreCondReq_avg_mshr_miss_latency::cpu00.data 15299.181818                       # average StoreCondReq mshr miss latency
system.cpu00.dcache.StoreCondReq_avg_mshr_miss_latency::total 15299.181818                       # average StoreCondReq mshr miss latency
system.cpu00.dcache.demand_avg_mshr_miss_latency::cpu00.data 118437.147137                       # average overall mshr miss latency
system.cpu00.dcache.demand_avg_mshr_miss_latency::total 118437.147137                       # average overall mshr miss latency
[...]
system.tol2bus.pkt_count_system.cpu06.dcache.mem_side::system.l2.cpu_side         1077                       # Packet count per connected master and slave (bytes)
system.tol2bus.pkt_count_system.cpu07.icache.mem_side::system.l2.cpu_side         3057                       # Packet count per connected master and slave (bytes)
system.tol2bus.pkt_count_system.cpu07.dcache.mem_side::system.l2.cpu_side         3594                       # Packet count per connected master and slave (bytes)
system.tol2bus.pkt_count_system.cpu08.icache.mem_side::system.l2.cpu_side         3228                       # Packet count per connected master and slave (bytes)
system.tol2bus.pkt_count_system.cpu08.dcache.mem_side::system.l2.cpu_side         3797                       # Packet count per connected master and slave (bytes)
system.tol2bus.pkt_count_system.cpu09.icache.mem_side::system.l2.cpu_side         1231                       # Packet count per connected master and slave (bytes)
system.tol2bus.pkt_count_system.cpu09.dcache.mem_side::system.l2.cpu_side         1075                       # Packet count per connected master and slave (bytes)
system.tol2bus.pkt_count_system.cpu10.icache.mem_side::system.l2.cpu_side         3020                       # Packet count per connected master and slave (bytes)
system.tol2bus.pkt_count_system.cpu10.dcache.mem_side::system.l2.cpu_side         3012                       # Packet count per connected master and slave (bytes)
system.tol2bus.pkt_count_system.cpu11.icache.mem_side::system.l2.cpu_side         3368                       # Packet count per connected master and slave (bytes)
system.tol2bus.pkt_count_system.cpu11.dcache.mem_side::system.l2.cpu_side         3896                       # Packet count per connected master and slave (bytes)
system.tol2bus.pkt_count_system.cpu12.icache.mem_side::system.l2.cpu_side         2725                       # Packet count per connected master and slave (bytes)
system.tol2bus.pkt_count_system.cpu12.dcache.mem_side::system.l2.cpu_side         2542                       # Packet count per connected master and slave (bytes)
system.tol2bus.pkt_count_system.cpu13.icache.mem_side::system.l2.cpu_side         2888                       # Packet count per connected master and slave (bytes)
system.tol2bus.pkt_count_system.cpu13.dcache.mem_side::system.l2.cpu_side         2768                       # Packet count per connected master and slave (bytes)
system.tol2bus.pkt_count_system.cpu14.icache.mem_side::system.l2.cpu_side         3467                       # Packet count per connected master and slave (bytes)
system.tol2bus.pkt_count_system.cpu14.dcache.mem_side::system.l2.cpu_side         4073                       # Packet count per connected master and slave (bytes)
system.tol2bus.pkt_count_system.cpu15.icache.mem_side::system.l2.cpu_side         2660                       # Packet count per connected master and slave (bytes)
system.tol2bus.pkt_count_system.cpu15.dcache.mem_side::system.l2.cpu_side         3391                       # Packet count per connected master and slave (bytes)
system.tol2bus.pkt_count::total                137472                       # Packet count per connected master and slave (bytes)
system.tol2bus.pkt_size_system.cpu00.icache.mem_side::system.l2.cpu_side       976128                       # Cumulative packet size per connected master and slave (bytes)
system.tol2bus.pkt_size_system.cpu00.dcache.mem_side::system.l2.cpu_side      1267520                       # Cumulative packet size per connected master and slave (bytes)
system.tol2bus.pkt_size_system.cpu01.icache.mem_side::system.l2.cpu_side        62144                       # Cumulative packet size per connected master and slave (bytes)
system.tol2bus.pkt_size_system.cpu01.dcache.mem_side::system.l2.cpu_side        34752                       # Cumulative packet size per connected master and slave (bytes)
system.tol2bus.pkt_size_system.cpu02.icache.mem_side::system.l2.cpu_side       145408                       # Cumulative packet size per connected master and slave (bytes)
system.tol2bus.pkt_size_system.cpu02.dcache.mem_side::system.l2.cpu_side        60160                       # Cumulative packet size per connected master and slave (bytes)
system.tol2bus.pkt_size_system.cpu03.icache.mem_side::system.l2.cpu_side        36224                       # Cumulative packet size per connected master and slave (bytes)
system.tol2bus.pkt_size_system.cpu03.dcache.mem_side::system.l2.cpu_side        28800                       # Cumulative packet size per connected master and slave (bytes)
system.tol2bus.pkt_size_system.cpu04.icache.mem_side::system.l2.cpu_side        31232                       # Cumulative packet size per connected master and slave (bytes)
system.tol2bus.pkt_size_system.cpu04.dcache.mem_side::system.l2.cpu_side        31616                       # Cumulative packet size per connected master and slave (bytes)
system.tol2bus.pkt_size_system.cpu05.icache.mem_side::system.l2.cpu_side       137856                       # Cumulative packet size per connected master and slave (bytes)
system.tol2bus.pkt_size_system.cpu05.dcache.mem_side::system.l2.cpu_side        57152                       # Cumulative packet size per connected master and slave (bytes)
system.tol2bus.pkt_size_system.cpu06.icache.mem_side::system.l2.cpu_side        39744                       # Cumulative packet size per connected master and slave (bytes)
system.tol2bus.pkt_size_system.cpu06.dcache.mem_side::system.l2.cpu_side        29312                       # Cumulative packet size per connected master and slave (bytes)
system.tol2bus.pkt_size_system.cpu07.icache.mem_side::system.l2.cpu_side       119808                       # Cumulative packet size per connected master and slave (bytes)
system.tol2bus.pkt_size_system.cpu07.dcache.mem_side::system.l2.cpu_side        49280                       # Cumulative packet size per connected master and slave (bytes)
system.tol2bus.pkt_size_system.cpu08.icache.mem_side::system.l2.cpu_side       127296                       # Cumulative packet size per connected master and slave (bytes)
system.tol2bus.pkt_size_system.cpu08.dcache.mem_side::system.l2.cpu_side        51200                       # Cumulative packet size per connected master and slave (bytes)
system.tol2bus.pkt_size_system.cpu09.icache.mem_side::system.l2.cpu_side        43328                       # Cumulative packet size per connected master and slave (bytes)
system.tol2bus.pkt_size_system.cpu09.dcache.mem_side::system.l2.cpu_side        27392                       # Cumulative packet size per connected master and slave (bytes)
system.tol2bus.pkt_size_system.cpu10.icache.mem_side::system.l2.cpu_side       118464                       # Cumulative packet size per connected master and slave (bytes)
system.tol2bus.pkt_size_system.cpu10.dcache.mem_side::system.l2.cpu_side        52032                       # Cumulative packet size per connected master and slave (bytes)
system.tol2bus.pkt_size_system.cpu11.icache.mem_side::system.l2.cpu_side       133312                       # Cumulative packet size per connected master and slave (bytes)
system.tol2bus.pkt_size_system.cpu11.dcache.mem_side::system.l2.cpu_side        57792                       # Cumulative packet size per connected master and slave (bytes)
system.tol2bus.pkt_size_system.cpu12.icache.mem_side::system.l2.cpu_side       106112                       # Cumulative packet size per connected master and slave (bytes)
system.tol2bus.pkt_size_system.cpu12.dcache.mem_side::system.l2.cpu_side        51584                       # Cumulative packet size per connected master and slave (bytes)
system.tol2bus.pkt_size_system.cpu13.icache.mem_side::system.l2.cpu_side       112960                       # Cumulative packet size per connected master and slave (bytes)
system.tol2bus.pkt_size_system.cpu13.dcache.mem_side::system.l2.cpu_side        48576                       # Cumulative packet size per connected master and slave (bytes)
system.tol2bus.pkt_size_system.cpu14.icache.mem_side::system.l2.cpu_side       137472                       # Cumulative packet size per connected master and slave (bytes)
system.tol2bus.pkt_size_system.cpu14.dcache.mem_side::system.l2.cpu_side        58688                       # Cumulative packet size per connected master and slave (bytes)
system.tol2bus.pkt_size_system.cpu15.icache.mem_side::system.l2.cpu_side       103104                       # Cumulative packet size per connected master and slave (bytes)
system.tol2bus.pkt_size_system.cpu15.dcache.mem_side::system.l2.cpu_side        46848                       # Cumulative packet size per connected master and slave (bytes)
system.tol2bus.pkt_size::total                4383296                       # Cumulative packet size per connected master and slave (bytes)
system.tol2bus.snoops                           13024                       # Total snoops (count)
system.tol2bus.snoop_fanout::samples            56960                       # Request fanout histogram
system.tol2bus.snoop_fanout::mean            2.543820                       # Request fanout histogram
system.tol2bus.snoop_fanout::stdev           3.804287                       # Request fanout histogram
system.tol2bus.snoop_fanout::underflows             0      0.00%      0.00% # Request fanout histogram
system.tol2bus.snoop_fanout::0                  23732     41.66%     41.66% # Request fanout histogram
system.tol2bus.snoop_fanout::1                  12823     22.51%     64.18% # Request fanout histogram
system.tol2bus.snoop_fanout::2                   4424      7.77%     71.94% # Request fanout histogram
system.tol2bus.snoop_fanout::3                   2557      4.49%     76.43% # Request fanout histogram
system.tol2bus.snoop_fanout::4                   1584      2.78%     79.21% # Request fanout histogram
system.tol2bus.snoop_fanout::5                   1416      2.49%     81.70% # Request fanout histogram
system.tol2bus.snoop_fanout::6                   1353      2.38%     84.07% # Request fanout histogram
system.tol2bus.snoop_fanout::7                   1354      2.38%     86.45% # Request fanout histogram
system.tol2bus.snoop_fanout::8                   1280      2.25%     88.70% # Request fanout histogram
system.tol2bus.snoop_fanout::9                   1214      2.13%     90.83% # Request fanout histogram
system.tol2bus.snoop_fanout::10                  1108      1.95%     92.78% # Request fanout histogram
system.tol2bus.snoop_fanout::11                  1130      1.98%     94.76% # Request fanout histogram
system.tol2bus.snoop_fanout::12                   825      1.45%     96.21% # Request fanout histogram
system.tol2bus.snoop_fanout::13                   803      1.41%     97.62% # Request fanout histogram
system.tol2bus.snoop_fanout::14                   828      1.45%     99.07% # Request fanout histogram
system.tol2bus.snoop_fanout::15                   529      0.93%    100.00% # Request fanout histogram
system.tol2bus.snoop_fanout::16                     0      0.00%    100.00% # Request fanout histogram
system.tol2bus.snoop_fanout::17                     0      0.00%    100.00% # Request fanout histogram
system.tol2bus.snoop_fanout::18                     0      0.00%    100.00% # Request fanout histogram
system.tol2bus.snoop_fanout::19                     0      0.00%    100.00% # Request fanout histogram
system.tol2bus.snoop_fanout::20                     0      0.00%    100.00% # Request fanout histogram
system.tol2bus.snoop_fanout::21                     0      0.00%    100.00% # Request fanout histogram
system.tol2bus.snoop_fanout::22                     0      0.00%    100.00% # Request fanout histogram
system.tol2bus.snoop_fanout::23                     0      0.00%    100.00% # Request fanout histogram
system.tol2bus.snoop_fanout::24                     0      0.00%    100.00% # Request fanout histogram
system.tol2bus.snoop_fanout::25                     0      0.00%    100.00% # Request fanout histogram
system.tol2bus.snoop_fanout::26                     0      0.00%    100.00% # Request fanout histogram
system.tol2bus.snoop_fanout::27                     0      0.00%    100.00% # Request fanout histogram
system.tol2bus.snoop_fanout::28                     0      0.00%    100.00% # Request fanout histogram
system.tol2bus.snoop_fanout::29                     0      0.00%    100.00% # Request fanout histogram
system.tol2bus.snoop_fanout::30                     0      0.00%    100.00% # Request fanout histogram
system.tol2bus.snoop_fanout::31                     0      0.00%    100.00% # Request fanout histogram
system.tol2bus.snoop_fanout::32                     0      0.00%    100.00% # Request fanout histogram
system.tol2bus.snoop_fanout::overflows              0      0.00%    100.00% # Request fanout histogram
system.tol2bus.snoop_fanout::min_value              0                       # Request fanout histogram
system.tol2bus.snoop_fanout::max_value             15                       # Request fanout histogram
system.tol2bus.snoop_fanout::total              56960                       # Request fanout histogram
system.tol2bus.reqLayer0.occupancy          183860973                       # Layer occupancy (ticks)
system.tol2bus.reqLayer0.utilization             13.8                       # Layer utilization (%)
system.tol2bus.respLayer0.occupancy          29726750                       # Layer occupancy (ticks)
system.tol2bus.respLayer0.utilization             2.2                       # Layer utilization (%)
system.tol2bus.respLayer1.occupancy          43914038                       # Layer occupancy (ticks)
system.tol2bus.respLayer1.utilization             3.3                       # Layer utilization (%)
system.tol2bus.respLayer2.occupancy           2730166                       # Layer occupancy (ticks)
system.tol2bus.respLayer2.utilization             0.2                       # Layer utilization (%)
system.tol2bus.respLayer3.occupancy           2888771                       # Layer occupancy (ticks)
system.tol2bus.respLayer3.utilization             0.2                       # Layer utilization (%)
system.tol2bus.respLayer4.occupancy           5168035                       # Layer occupancy (ticks)
system.tol2bus.respLayer4.utilization             0.4                       # Layer utilization (%)
system.tol2bus.respLayer5.occupancy           8052597                       # Layer occupancy (ticks)
system.tol2bus.respLayer5.utilization             0.6                       # Layer utilization (%)
system.tol2bus.respLayer6.occupancy           1856374                       # Layer occupancy (ticks)
system.tol2bus.respLayer6.utilization             0.1                       # Layer utilization (%)
system.tol2bus.respLayer7.occupancy           1768572                       # Layer occupancy (ticks)
system.tol2bus.respLayer7.utilization             0.1                       # Layer utilization (%)
system.tol2bus.respLayer8.occupancy           1670753                       # Layer occupancy (ticks)
system.tol2bus.respLayer8.utilization             0.1                       # Layer utilization (%)
system.tol2bus.respLayer9.occupancy           1722996                       # Layer occupancy (ticks)
system.tol2bus.respLayer9.utilization             0.1                       # Layer utilization (%)
system.tol2bus.respLayer10.occupancy          5001472                       # Layer occupancy (ticks)
system.tol2bus.respLayer10.utilization            0.4                       # Layer utilization (%)
system.tol2bus.respLayer11.occupancy          7850567                       # Layer occupancy (ticks)
system.tol2bus.respLayer11.utilization            0.6                       # Layer utilization (%)
system.tol2bus.respLayer12.occupancy          1976994                       # Layer occupancy (ticks)
system.tol2bus.respLayer12.utilization            0.1                       # Layer utilization (%)
system.tol2bus.respLayer13.occupancy          1752593                       # Layer occupancy (ticks)
system.tol2bus.respLayer13.utilization            0.1                       # Layer utilization (%)
system.tol2bus.respLayer14.occupancy          4465258                       # Layer occupancy (ticks)
system.tol2bus.respLayer14.utilization            0.3                       # Layer utilization (%)
system.tol2bus.respLayer15.occupancy          6508457                       # Layer occupancy (ticks)
system.tol2bus.respLayer15.utilization            0.5                       # Layer utilization (%)
system.tol2bus.respLayer16.occupancy          4699067                       # Layer occupancy (ticks)
system.tol2bus.respLayer16.utilization            0.4                       # Layer utilization (%)
system.tol2bus.respLayer17.occupancy          6859427                       # Layer occupancy (ticks)
system.tol2bus.respLayer17.utilization            0.5                       # Layer utilization (%)
system.tol2bus.respLayer18.occupancy          2146891                       # Layer occupancy (ticks)
system.tol2bus.respLayer18.utilization            0.2                       # Layer utilization (%)
system.tol2bus.respLayer19.occupancy          1760493                       # Layer occupancy (ticks)
system.tol2bus.respLayer19.utilization            0.1                       # Layer utilization (%)
system.tol2bus.respLayer20.occupancy          4461747                       # Layer occupancy (ticks)
system.tol2bus.respLayer20.utilization            0.3                       # Layer utilization (%)
system.tol2bus.respLayer21.occupancy          5336787                       # Layer occupancy (ticks)
system.tol2bus.respLayer21.utilization            0.4                       # Layer utilization (%)
system.tol2bus.respLayer22.occupancy          4876615                       # Layer occupancy (ticks)
system.tol2bus.respLayer22.utilization            0.4                       # Layer utilization (%)
system.tol2bus.respLayer23.occupancy          7058201                       # Layer occupancy (ticks)
system.tol2bus.respLayer23.utilization            0.5                       # Layer utilization (%)
system.tol2bus.respLayer24.occupancy          4095500                       # Layer occupancy (ticks)
system.tol2bus.respLayer24.utilization            0.3                       # Layer utilization (%)
system.tol2bus.respLayer25.occupancy          4325812                       # Layer occupancy (ticks)
system.tol2bus.respLayer25.utilization            0.3                       # Layer utilization (%)
system.tol2bus.respLayer26.occupancy          4263531                       # Layer occupancy (ticks)
system.tol2bus.respLayer26.utilization            0.3                       # Layer utilization (%)
system.tol2bus.respLayer27.occupancy          4827606                       # Layer occupancy (ticks)
system.tol2bus.respLayer27.utilization            0.4                       # Layer utilization (%)
system.tol2bus.respLayer28.occupancy          5006846                       # Layer occupancy (ticks)
system.tol2bus.respLayer28.utilization            0.4                       # Layer utilization (%)
system.tol2bus.respLayer29.occupancy          7238295                       # Layer occupancy (ticks)
system.tol2bus.respLayer29.utilization            0.5                       # Layer utilization (%)
system.tol2bus.respLayer30.occupancy          3966421                       # Layer occupancy (ticks)
system.tol2bus.respLayer30.utilization            0.3                       # Layer utilization (%)
system.tol2bus.respLayer31.occupancy          5998505                       # Layer occupancy (ticks)
system.tol2bus.respLayer31.utilization            0.5                       # Layer utilization (%)

---------- End Simulation Statistics   ----------
