
---------- Begin Simulation Statistics ----------
sim_seconds                                  0.053090                       # Number of seconds simulated
sim_ticks                                 53090132535                       # Number of ticks simulated
final_tick                                53090132535                       # Number of ticks from beginning of simulation (restored from checkpoints and never reset)
sim_freq                                 1000000000000                       # Frequency of simulated ticks
host_inst_rate                                 236696                       # Simulator instruction rate (inst/s)
host_op_rate                                   236696                       # Simulator op (including micro ops) rate (op/s)
host_tick_rate                               26942580                       # Simulator tick rate (ticks/s)
host_mem_usage                                 693464                       # Number of bytes of host memory used
host_seconds                                  1970.49                       # Real time elapsed on the host
sim_insts                                   466407892                       # Number of instructions simulated
sim_ops                                     466407892                       # Number of ops (including micro ops) simulated
system.voltage_domain.voltage                       1                       # Voltage in Volts
system.clk_domain.clock                          1000                       # Clock period in ticks
system.mem_ctrls.bytes_read::cpu00.inst        138752                       # Number of bytes read from this memory
system.mem_ctrls.bytes_read::cpu00.data       5759552                       # Number of bytes read from this memory
system.mem_ctrls.bytes_read::cpu01.inst         12480                       # Number of bytes read from this memory
system.mem_ctrls.bytes_read::cpu01.data       1089536                       # Number of bytes read from this memory
system.mem_ctrls.bytes_read::cpu02.inst          1216                       # Number of bytes read from this memory
system.mem_ctrls.bytes_read::cpu02.data       1059008                       # Number of bytes read from this memory
system.mem_ctrls.bytes_read::cpu03.inst           576                       # Number of bytes read from this memory
system.mem_ctrls.bytes_read::cpu03.data       1137984                       # Number of bytes read from this memory
system.mem_ctrls.bytes_read::cpu04.data       1105472                       # Number of bytes read from this memory
system.mem_ctrls.bytes_read::cpu05.inst           320                       # Number of bytes read from this memory
system.mem_ctrls.bytes_read::cpu05.data       1120640                       # Number of bytes read from this memory
system.mem_ctrls.bytes_read::cpu06.inst           896                       # Number of bytes read from this memory
system.mem_ctrls.bytes_read::cpu06.data       1082752                       # Number of bytes read from this memory
system.mem_ctrls.bytes_read::cpu07.inst           320                       # Number of bytes read from this memory
system.mem_ctrls.bytes_read::cpu07.data       1176960                       # Number of bytes read from this memory
system.mem_ctrls.bytes_read::cpu08.inst           128                       # Number of bytes read from this memory
system.mem_ctrls.bytes_read::cpu08.data       1146624                       # Number of bytes read from this memory
system.mem_ctrls.bytes_read::cpu09.inst           256                       # Number of bytes read from this memory
system.mem_ctrls.bytes_read::cpu09.data       1144192                       # Number of bytes read from this memory
system.mem_ctrls.bytes_read::cpu10.inst           128                       # Number of bytes read from this memory
system.mem_ctrls.bytes_read::cpu10.data       1102144                       # Number of bytes read from this memory
system.mem_ctrls.bytes_read::cpu11.inst          1408                       # Number of bytes read from this memory
system.mem_ctrls.bytes_read::cpu11.data       1192512                       # Number of bytes read from this memory
system.mem_ctrls.bytes_read::cpu12.inst           128                       # Number of bytes read from this memory
system.mem_ctrls.bytes_read::cpu12.data       1165184                       # Number of bytes read from this memory
system.mem_ctrls.bytes_read::cpu13.inst           192                       # Number of bytes read from this memory
system.mem_ctrls.bytes_read::cpu13.data       1170048                       # Number of bytes read from this memory
system.mem_ctrls.bytes_read::cpu14.inst           128                       # Number of bytes read from this memory
system.mem_ctrls.bytes_read::cpu14.data       1138688                       # Number of bytes read from this memory
system.mem_ctrls.bytes_read::cpu15.inst           128                       # Number of bytes read from this memory
system.mem_ctrls.bytes_read::cpu15.data       1223872                       # Number of bytes read from this memory
system.mem_ctrls.bytes_read::total           22972224                       # Number of bytes read from this memory
system.mem_ctrls.bytes_inst_read::cpu00.inst       138752                       # Number of instructions bytes read from this memory
system.mem_ctrls.bytes_inst_read::cpu01.inst        12480                       # Number of instructions bytes read from this memory
system.mem_ctrls.bytes_inst_read::cpu02.inst         1216                       # Number of instructions bytes read from this memory
system.mem_ctrls.bytes_inst_read::cpu03.inst          576                       # Number of instructions bytes read from this memory
system.mem_ctrls.bytes_inst_read::cpu05.inst          320                       # Number of instructions bytes read from this memory
system.mem_ctrls.bytes_inst_read::cpu06.inst          896                       # Number of instructions bytes read from this memory
system.mem_ctrls.bytes_inst_read::cpu07.inst          320                       # Number of instructions bytes read from this memory
system.mem_ctrls.bytes_inst_read::cpu08.inst          128                       # Number of instructions bytes read from this memory
system.mem_ctrls.bytes_inst_read::cpu09.inst          256                       # Number of instructions bytes read from this memory
system.mem_ctrls.bytes_inst_read::cpu10.inst          128                       # Number of instructions bytes read from this memory
system.mem_ctrls.bytes_inst_read::cpu11.inst         1408                       # Number of instructions bytes read from this memory
system.mem_ctrls.bytes_inst_read::cpu12.inst          128                       # Number of instructions bytes read from this memory
system.mem_ctrls.bytes_inst_read::cpu13.inst          192                       # Number of instructions bytes read from this memory
system.mem_ctrls.bytes_inst_read::cpu14.inst          128                       # Number of instructions bytes read from this memory
system.mem_ctrls.bytes_inst_read::cpu15.inst          128                       # Number of instructions bytes read from this memory
system.mem_ctrls.bytes_inst_read::total        157056                       # Number of instructions bytes read from this memory
system.mem_ctrls.bytes_written::writebacks     17111936                       # Number of bytes written to this memory
system.mem_ctrls.bytes_written::total        17111936                       # Number of bytes written to this memory
system.mem_ctrls.num_reads::cpu00.inst           2168                       # Number of read requests responded to by this memory
system.mem_ctrls.num_reads::cpu00.data          89993                       # Number of read requests responded to by this memory
system.mem_ctrls.num_reads::cpu01.inst            195                       # Number of read requests responded to by this memory
system.mem_ctrls.num_reads::cpu01.data          17024                       # Number of read requests responded to by this memory
system.mem_ctrls.num_reads::cpu02.inst             19                       # Number of read requests responded to by this memory
system.mem_ctrls.num_reads::cpu02.data          16547                       # Number of read requests responded to by this memory
system.mem_ctrls.num_reads::cpu03.inst              9                       # Number of read requests responded to by this memory
system.mem_ctrls.num_reads::cpu03.data          17781                       # Number of read requests responded to by this memory
system.mem_ctrls.num_reads::cpu04.data          17273                       # Number of read requests responded to by this memory
system.mem_ctrls.num_reads::cpu05.inst              5                       # Number of read requests responded to by this memory
system.mem_ctrls.num_reads::cpu05.data          17510                       # Number of read requests responded to by this memory
system.mem_ctrls.num_reads::cpu06.inst             14                       # Number of read requests responded to by this memory
system.mem_ctrls.num_reads::cpu06.data          16918                       # Number of read requests responded to by this memory
system.mem_ctrls.num_reads::cpu07.inst              5                       # Number of read requests responded to by this memory
system.mem_ctrls.num_reads::cpu07.data          18390                       # Number of read requests responded to by this memory
system.mem_ctrls.num_reads::cpu08.inst              2                       # Number of read requests responded to by this memory
system.mem_ctrls.num_reads::cpu08.data          17916                       # Number of read requests responded to by this memory
system.mem_ctrls.num_reads::cpu09.inst              4                       # Number of read requests responded to by this memory
system.mem_ctrls.num_reads::cpu09.data          17878                       # Number of read requests responded to by this memory
system.mem_ctrls.num_reads::cpu10.inst              2                       # Number of read requests responded to by this memory
system.mem_ctrls.num_reads::cpu10.data          17221                       # Number of read requests responded to by this memory
system.mem_ctrls.num_reads::cpu11.inst             22                       # Number of read requests responded to by this memory
system.mem_ctrls.num_reads::cpu11.data          18633                       # Number of read requests responded to by this memory
system.mem_ctrls.num_reads::cpu12.inst              2                       # Number of read requests responded to by this memory
system.mem_ctrls.num_reads::cpu12.data          18206                       # Number of read requests responded to by this memory
system.mem_ctrls.num_reads::cpu13.inst              3                       # Number of read requests responded to by this memory
system.mem_ctrls.num_reads::cpu13.data          18282                       # Number of read requests responded to by this memory
system.mem_ctrls.num_reads::cpu14.inst              2                       # Number of read requests responded to by this memory
system.mem_ctrls.num_reads::cpu14.data          17792                       # Number of read requests responded to by this memory
system.mem_ctrls.num_reads::cpu15.inst              2                       # Number of read requests responded to by this memory
system.mem_ctrls.num_reads::cpu15.data          19123                       # Number of read requests responded to by this memory
system.mem_ctrls.num_reads::total              358941                       # Number of read requests responded to by this memory
system.mem_ctrls.num_writes::writebacks        267374                       # Number of write requests responded to by this memory
system.mem_ctrls.num_writes::total             267374                       # Number of write requests responded to by this memory
system.mem_ctrls.bw_read::cpu00.inst          2613518                       # Total read bandwidth from this memory (bytes/s)
system.mem_ctrls.bw_read::cpu00.data        108486299                       # Total read bandwidth from this memory (bytes/s)
system.mem_ctrls.bw_read::cpu01.inst           235072                       # Total read bandwidth from this memory (bytes/s)
system.mem_ctrls.bw_read::cpu01.data         20522382                       # Total read bandwidth from this memory (bytes/s)
system.mem_ctrls.bw_read::cpu02.inst            22904                       # Total read bandwidth from this memory (bytes/s)
system.mem_ctrls.bw_read::cpu02.data         19947360                       # Total read bandwidth from this memory (bytes/s)
system.mem_ctrls.bw_read::cpu03.inst            10849                       # Total read bandwidth from this memory (bytes/s)
system.mem_ctrls.bw_read::cpu03.data         21434944                       # Total read bandwidth from this memory (bytes/s)
system.mem_ctrls.bw_read::cpu04.data         20822551                       # Total read bandwidth from this memory (bytes/s)
system.mem_ctrls.bw_read::cpu05.inst             6027                       # Total read bandwidth from this memory (bytes/s)
system.mem_ctrls.bw_read::cpu05.data         21108254                       # Total read bandwidth from this memory (bytes/s)
system.mem_ctrls.bw_read::cpu06.inst            16877                       # Total read bandwidth from this memory (bytes/s)
system.mem_ctrls.bw_read::cpu06.data         20394600                       # Total read bandwidth from this memory (bytes/s)
system.mem_ctrls.bw_read::cpu07.inst             6027                       # Total read bandwidth from this memory (bytes/s)
system.mem_ctrls.bw_read::cpu07.data         22169091                       # Total read bandwidth from this memory (bytes/s)
system.mem_ctrls.bw_read::cpu08.inst             2411                       # Total read bandwidth from this memory (bytes/s)
system.mem_ctrls.bw_read::cpu08.data         21597686                       # Total read bandwidth from this memory (bytes/s)
system.mem_ctrls.bw_read::cpu09.inst             4822                       # Total read bandwidth from this memory (bytes/s)
system.mem_ctrls.bw_read::cpu09.data         21551877                       # Total read bandwidth from this memory (bytes/s)
system.mem_ctrls.bw_read::cpu10.inst             2411                       # Total read bandwidth from this memory (bytes/s)
system.mem_ctrls.bw_read::cpu10.data         20759865                       # Total read bandwidth from this memory (bytes/s)
system.mem_ctrls.bw_read::cpu11.inst            26521                       # Total read bandwidth from this memory (bytes/s)
system.mem_ctrls.bw_read::cpu11.data         22462027                       # Total read bandwidth from this memory (bytes/s)
system.mem_ctrls.bw_read::cpu12.inst             2411                       # Total read bandwidth from this memory (bytes/s)
system.mem_ctrls.bw_read::cpu12.data         21947280                       # Total read bandwidth from this memory (bytes/s)
system.mem_ctrls.bw_read::cpu13.inst             3616                       # Total read bandwidth from this memory (bytes/s)
system.mem_ctrls.bw_read::cpu13.data         22038898                       # Total read bandwidth from this memory (bytes/s)
system.mem_ctrls.bw_read::cpu14.inst             2411                       # Total read bandwidth from this memory (bytes/s)
system.mem_ctrls.bw_read::cpu14.data         21448204                       # Total read bandwidth from this memory (bytes/s)
system.mem_ctrls.bw_read::cpu15.inst             2411                       # Total read bandwidth from this memory (bytes/s)
system.mem_ctrls.bw_read::cpu15.data         23052721                       # Total read bandwidth from this memory (bytes/s)
system.mem_ctrls.bw_read::total             432702329                       # Total read bandwidth from this memory (bytes/s)
system.mem_ctrls.bw_inst_read::cpu00.inst      2613518                       # Instruction read bandwidth from this memory (bytes/s)
system.mem_ctrls.bw_inst_read::cpu01.inst       235072                       # Instruction read bandwidth from this memory (bytes/s)
system.mem_ctrls.bw_inst_read::cpu02.inst        22904                       # Instruction read bandwidth from this memory (bytes/s)
system.mem_ctrls.bw_inst_read::cpu03.inst        10849                       # Instruction read bandwidth from this memory (bytes/s)
system.mem_ctrls.bw_inst_read::cpu05.inst         6027                       # Instruction read bandwidth from this memory (bytes/s)
system.mem_ctrls.bw_inst_read::cpu06.inst        16877                       # Instruction read bandwidth from this memory (bytes/s)
system.mem_ctrls.bw_inst_read::cpu07.inst         6027                       # Instruction read bandwidth from this memory (bytes/s)
system.mem_ctrls.bw_inst_read::cpu08.inst         2411                       # Instruction read bandwidth from this memory (bytes/s)
system.mem_ctrls.bw_inst_read::cpu09.inst         4822                       # Instruction read bandwidth from this memory (bytes/s)
system.mem_ctrls.bw_inst_read::cpu10.inst         2411                       # Instruction read bandwidth from this memory (bytes/s)
system.mem_ctrls.bw_inst_read::cpu11.inst        26521                       # Instruction read bandwidth from this memory (bytes/s)
system.mem_ctrls.bw_inst_read::cpu12.inst         2411                       # Instruction read bandwidth from this memory (bytes/s)
system.mem_ctrls.bw_inst_read::cpu13.inst         3616                       # Instruction read bandwidth from this memory (bytes/s)
system.mem_ctrls.bw_inst_read::cpu14.inst         2411                       # Instruction read bandwidth from this memory (bytes/s)
system.mem_ctrls.bw_inst_read::cpu15.inst         2411                       # Instruction read bandwidth from this memory (bytes/s)
system.mem_ctrls.bw_inst_read::total          2958290                       # Instruction read bandwidth from this memory (bytes/s)
system.mem_ctrls.bw_write::writebacks       322318578                       # Write bandwidth from this memory (bytes/s)
system.mem_ctrls.bw_write::total            322318578                       # Write bandwidth from this memory (bytes/s)
system.mem_ctrls.bw_total::writebacks       322318578                       # Total bandwidth to/from this memory (bytes/s)
system.mem_ctrls.bw_total::cpu00.inst         2613518                       # Total bandwidth to/from this memory (bytes/s)
system.mem_ctrls.bw_total::cpu00.data       108486299                       # Total bandwidth to/from this memory (bytes/s)
system.mem_ctrls.bw_total::cpu01.inst          235072                       # Total bandwidth to/from this memory (bytes/s)
system.mem_ctrls.bw_total::cpu01.data        20522382                       # Total bandwidth to/from this memory (bytes/s)
system.mem_ctrls.bw_total::cpu02.inst           22904                       # Total bandwidth to/from this memory (bytes/s)
system.mem_ctrls.bw_total::cpu02.data        19947360                       # Total bandwidth to/from this memory (bytes/s)
system.mem_ctrls.bw_total::cpu03.inst           10849                       # Total bandwidth to/from this memory (bytes/s)
system.mem_ctrls.bw_total::cpu03.data        21434944                       # Total bandwidth to/from this memory (bytes/s)
system.mem_ctrls.bw_total::cpu04.data        20822551                       # Total bandwidth to/from this memory (bytes/s)
system.mem_ctrls.bw_total::cpu05.inst            6027                       # Total bandwidth to/from this memory (bytes/s)
system.mem_ctrls.bw_total::cpu05.data        21108254                       # Total bandwidth to/from this memory (bytes/s)
system.mem_ctrls.bw_total::cpu06.inst           16877                       # Total bandwidth to/from this memory (bytes/s)
system.mem_ctrls.bw_total::cpu06.data        20394600                       # Total bandwidth to/from this memory (bytes/s)
system.mem_ctrls.bw_total::cpu07.inst            6027                       # Total bandwidth to/from this memory (bytes/s)
system.mem_ctrls.bw_total::cpu07.data        22169091                       # Total bandwidth to/from this memory (bytes/s)
system.mem_ctrls.bw_total::cpu08.inst            2411                       # Total bandwidth to/from this memory (bytes/s)
system.mem_ctrls.bw_total::cpu08.data        21597686                       # Total bandwidth to/from this memory (bytes/s)
system.mem_ctrls.bw_total::cpu09.inst            4822                       # Total bandwidth to/from this memory (bytes/s)
system.mem_ctrls.bw_total::cpu09.data        21551877                       # Total bandwidth to/from this memory (bytes/s)
system.mem_ctrls.bw_total::cpu10.inst            2411                       # Total bandwidth to/from this memory (bytes/s)
system.mem_ctrls.bw_total::cpu10.data        20759865                       # Total bandwidth to/from this memory (bytes/s)
system.mem_ctrls.bw_total::cpu11.inst           26521                       # Total bandwidth to/from this memory (bytes/s)
system.mem_ctrls.bw_total::cpu11.data        22462027                       # Total bandwidth to/from this memory (bytes/s)
system.mem_ctrls.bw_total::cpu12.inst            2411                       # Total bandwidth to/from this memory (bytes/s)
system.mem_ctrls.bw_total::cpu12.data        21947280                       # Total bandwidth to/from this memory (bytes/s)
system.mem_ctrls.bw_total::cpu13.inst            3616                       # Total bandwidth to/from this memory (bytes/s)
system.mem_ctrls.bw_total::cpu13.data        22038898                       # Total bandwidth to/from this memory (bytes/s)
system.mem_ctrls.bw_total::cpu14.inst            2411                       # Total bandwidth to/from this memory (bytes/s)
system.mem_ctrls.bw_total::cpu14.data        21448204                       # Total bandwidth to/from this memory (bytes/s)
system.mem_ctrls.bw_total::cpu15.inst            2411                       # Total bandwidth to/from this memory (bytes/s)
system.mem_ctrls.bw_total::cpu15.data        23052721                       # Total bandwidth to/from this memory (bytes/s)
system.mem_ctrls.bw_total::total            755020907                       # Total bandwidth to/from this memory (bytes/s)
system.cpu00.branchPred.lookups              16413025                       # Number of BP lookups
system.cpu00.branchPred.condPredicted         9953756                       # Number of conditional branches predicted
system.cpu00.branchPred.condIncorrect           22879                       # Number of conditional branches incorrect
system.cpu00.branchPred.BTBLookups           11482431                       # Number of BTB lookups
system.cpu00.branchPred.BTBHits               8320599                       # Number of BTB hits
system.cpu00.branchPred.BTBCorrect                  0                       # Number of correct BTB predictions (this stat may not work properly.
system.cpu00.branchPred.BTBHitPct           72.463740                       # BTB Hit Percentage
system.cpu00.branchPred.usedRAS               3224352                       # Number of times the RAS was used to get a target.
system.cpu00.branchPred.RASInCorrect               90                       # Number of incorrect RAS predictions.
system.cpu00.branchPred.indirectLookups        265166                       # Number of indirect predictor lookups.
system.cpu00.branchPred.indirectHits           264289                       # Number of indirect target hits.
system.cpu00.branchPred.indirectMisses            877                       # Number of indirect misses.
system.cpu00.branchPredindirectMispredicted          262                       # Number of mispredicted indirect branches.
system.cpu_voltage_domain.voltage                   1                       # Voltage in Volts
system.cpu_clk_domain.clock                      1161                       # Clock period in ticks
system.cpu00.dtb.fetch_hits                         0                       # ITB hits
system.cpu00.dtb.fetch_misses                       0                       # ITB misses
system.cpu00.dtb.fetch_acv                          0                       # ITB acv
system.cpu00.dtb.fetch_accesses                     0                       # ITB accesses
system.cpu00.dtb.read_hits                   21253436                       # DTB read hits
system.cpu00.dtb.read_misses                     5618                       # DTB read misses
system.cpu00.dtb.read_acv                           1                       # DTB read access violations
system.cpu00.dtb.read_accesses               21259054                       # DTB read accesses
system.cpu00.dtb.write_hits                   7525753                       # DTB write hits
system.cpu00.dtb.write_misses                    2202                       # DTB write misses
system.cpu00.dtb.write_acv                          0                       # DTB write access violations
system.cpu00.dtb.write_accesses               7527955                       # DTB write accesses
system.cpu00.dtb.data_hits                   28779189                       # DTB hits
system.cpu00.dtb.data_misses                     7820                       # DTB misses
system.cpu00.dtb.data_acv                           1                       # DTB access violations
system.cpu00.dtb.data_accesses               28787009                       # DTB accesses
system.cpu00.itb.fetch_hits                  15827006                       # ITB hits
system.cpu00.itb.fetch_misses                     176                       # ITB misses
system.cpu00.itb.fetch_acv                          0                       # ITB acv
system.cpu00.itb.fetch_accesses              15827182                       # ITB accesses
system.cpu00.itb.read_hits                          0                       # DTB read hits
system.cpu00.itb.read_misses                        0                       # DTB read misses
system.cpu00.itb.read_acv                           0                       # DTB read access violations
system.cpu00.itb.read_accesses                      0                       # DTB read accesses
system.cpu00.itb.write_hits                         0                       # DTB write hits
system.cpu00.itb.write_misses                       0                       # DTB write misses
system.cpu00.itb.write_acv                          0                       # DTB write access violations
system.cpu00.itb.write_accesses                     0                       # DTB write accesses
system.cpu00.itb.data_hits                          0                       # DTB hits
system.cpu00.itb.data_misses                        0                       # DTB misses
system.cpu00.itb.data_acv                           0                       # DTB access violations
system.cpu00.itb.data_accesses                      0                       # DTB accesses
system.cpu00.workload.num_syscalls               5349                       # Number of system calls
system.cpu00.numCycles                       44760032                       # number of cpu cycles simulated
system.cpu00.numWorkItemsStarted                    0                       # number of work items this cpu started
system.cpu00.numWorkItemsCompleted                  0                       # number of work items this cpu completed
system.cpu00.fetch.icacheStallCycles           102110                       # Number of cycles fetch is stalled on an Icache miss
system.cpu00.fetch.Insts                    122360708                       # Number of instructions fetch has processed
system.cpu00.fetch.Branches                  16413025                       # Number of branches that fetch encountered
system.cpu00.fetch.predictedBranches         11809240                       # Number of branches that fetch has predicted taken
system.cpu00.fetch.Cycles                    44391291                       # Number of cycles fetch has run and was not squashing or blocked
system.cpu00.fetch.SquashCycles                 52954                       # Number of cycles fetch has spent squashing
system.cpu00.fetch.MiscStallCycles                185                       # Number of cycles fetch has spent waiting on interrupts, or bad addresses, or out of MSHRs
system.cpu00.fetch.PendingTrapStallCycles         6657                       # Number of stall cycles due to pending traps
system.cpu00.fetch.IcacheWaitRetryStallCycles           37                       # Number of stall cycles due to full MSHR
system.cpu00.fetch.CacheLines                15827006                       # Number of cache lines fetched
system.cpu00.fetch.IcacheSquashes                2527                       # Number of outstanding Icache misses that were squashed
system.cpu00.fetch.rateDist::samples         44526757                       # Number of instructions fetched each cycle (Total)
system.cpu00.fetch.rateDist::mean            2.748026                       # Number of instructions fetched each cycle (Total)
system.cpu00.fetch.rateDist::stdev           3.096434                       # Number of instructions fetched each cycle (Total)
system.cpu00.fetch.rateDist::underflows             0      0.00%      0.00% # Number of instructions fetched each cycle (Total)
system.cpu00.fetch.rateDist::0               21364173     47.98%     47.98% # Number of instructions fetched each cycle (Total)
system.cpu00.fetch.rateDist::1                 881949      1.98%     49.96% # Number of instructions fetched each cycle (Total)
system.cpu00.fetch.rateDist::2                2363047      5.31%     55.27% # Number of instructions fetched each cycle (Total)
system.cpu00.fetch.rateDist::3                2723228      6.12%     61.38% # Number of instructions fetched each cycle (Total)
system.cpu00.fetch.rateDist::4                3576151      8.03%     69.42% # Number of instructions fetched each cycle (Total)
system.cpu00.fetch.rateDist::5                1905351      4.28%     73.69% # Number of instructions fetched each cycle (Total)
system.cpu00.fetch.rateDist::6                4059578      9.12%     82.81% # Number of instructions fetched each cycle (Total)
system.cpu00.fetch.rateDist::7                 832086      1.87%     84.68% # Number of instructions fetched each cycle (Total)
system.cpu00.fetch.rateDist::8                6821194     15.32%    100.00% # Number of instructions fetched each cycle (Total)
system.cpu00.fetch.rateDist::overflows              0      0.00%    100.00% # Number of instructions fetched each cycle (Total)
system.cpu00.fetch.rateDist::min_value              0                       # Number of instructions fetched each cycle (Total)
system.cpu00.fetch.rateDist::max_value              8                       # Number of instructions fetched each cycle (Total)
system.cpu00.fetch.rateDist::total           44526757                       # Number of instructions fetched each cycle (Total)
system.cpu00.fetch.branchRate                0.366689                       # Number of branch fetches per cycle
system.cpu00.fetch.rate                      2.733705                       # Number of inst fetches per cycle
system.cpu00.decode.IdleCycles                1149718                       # Number of cycles decode is idle
system.cpu00.decode.BlockedCycles            24188643                       # Number of cycles decode is blocked
system.cpu00.decode.RunCycles                17294349                       # Number of cycles decode is running
system.cpu00.decode.UnblockCycles             1869297                       # Number of cycles decode is unblocking
system.cpu00.decode.SquashCycles                24750                       # Number of cycles decode is squashing
system.cpu00.decode.BranchResolved            2964893                       # Number of times decode resolved a branch
system.cpu00.decode.BranchMispred                1758                       # Number of times decode detected a branch misprediction
system.cpu00.decode.DecodedInsts            122022932                       # Number of instructions handled by decode
system.cpu00.decode.SquashedInsts                8042                       # Number of squashed instructions handled by decode
system.cpu00.rename.SquashCycles                24750                       # Number of cycles rename is squashing
system.cpu00.rename.IdleCycles                2211140                       # Number of cycles rename is idle
system.cpu00.rename.BlockCycles               5965893                       # Number of cycles rename is blocking
system.cpu00.rename.serializeStallCycles     13968076                       # count of cycles rename stalled for serializing inst
system.cpu00.rename.RunCycles                18047975                       # Number of cycles rename is running
system.cpu00.rename.UnblockCycles             4308923                       # Number of cycles rename is unblocking
system.cpu00.rename.RenamedInsts            121861005                       # Number of instructions processed by rename
system.cpu00.rename.ROBFullEvents               73604                       # Number of times rename has blocked due to ROB full
system.cpu00.rename.IQFullEvents              1090325                       # Number of times rename has blocked due to IQ full
system.cpu00.rename.LQFullEvents              1907049                       # Number of times rename has blocked due to LQ full
system.cpu00.rename.SQFullEvents               218170                       # Number of times rename has blocked due to SQ full
system.cpu00.rename.RenamedOperands          94714209                       # Number of destination operands rename has renamed
system.cpu00.rename.RenameLookups           167480315                       # Number of register rename lookups that rename has made
system.cpu00.rename.int_rename_lookups      148669635                       # Number of integer rename lookups
system.cpu00.rename.fp_rename_lookups        18548278                       # Number of floating rename lookups
system.cpu00.rename.CommittedMaps            93904214                       # Number of HB maps that are committed
system.cpu00.rename.UndoneMaps                 809995                       # Number of HB maps that are undone due to squashing
system.cpu00.rename.serializingInsts           265677                       # count of serializing insts renamed
system.cpu00.rename.tempSerializingInsts         2059                       # count of temporary serializing insts renamed
system.cpu00.rename.skidInsts                11910027                       # count of insts added to the skid buffer
system.cpu00.memDep0.insertedLoads           21201736                       # Number of loads inserted to the mem dependence unit.
system.cpu00.memDep0.insertedStores           7540493                       # Number of stores inserted to the mem dependence unit.
system.cpu00.memDep0.conflictingLoads         1506276                       # Number of conflicting loads.
system.cpu00.memDep0.conflictingStores         419668                       # Number of conflicting stores.
system.cpu00.iq.iqInstsAdded                116766903                       # Number of instructions added to the IQ (excludes non-spec)
system.cpu00.iq.iqNonSpecInstsAdded              3245                       # Number of non-speculative instructions added to the IQ
system.cpu00.iq.iqInstsIssued               116735224                       # Number of instructions issued
system.cpu00.iq.iqSquashedInstsIssued           19391                       # Number of squashed instructions issued
system.cpu00.iq.iqSquashedInstsExamined        754755                       # Number of squashed instructions iterated over during squash; mainly for profiling
system.cpu00.iq.iqSquashedOperandsExamined       306140                       # Number of squashed operands that are examined and possibly removed from graph
system.cpu00.iq.iqSquashedNonSpecRemoved          466                       # Number of squashed non-spec instructions that were removed
system.cpu00.iq.issued_per_cycle::samples     44526757                       # Number of insts issued each cycle
system.cpu00.iq.issued_per_cycle::mean       2.621687                       # Number of insts issued each cycle
system.cpu00.iq.issued_per_cycle::stdev      2.670712                       # Number of insts issued each cycle
system.cpu00.iq.issued_per_cycle::underflows            0      0.00%      0.00% # Number of insts issued each cycle
system.cpu00.iq.issued_per_cycle::0          18951097     42.56%     42.56% # Number of insts issued each cycle
system.cpu00.iq.issued_per_cycle::1           1791673      4.02%     46.58% # Number of insts issued each cycle
system.cpu00.iq.issued_per_cycle::2           1926333      4.33%     50.91% # Number of insts issued each cycle
system.cpu00.iq.issued_per_cycle::3           3350481      7.52%     58.44% # Number of insts issued each cycle
system.cpu00.iq.issued_per_cycle::4           5742054     12.90%     71.33% # Number of insts issued each cycle
system.cpu00.iq.issued_per_cycle::5           4564090     10.25%     81.58% # Number of insts issued each cycle
system.cpu00.iq.issued_per_cycle::6           4254413      9.55%     91.14% # Number of insts issued each cycle
system.cpu00.iq.issued_per_cycle::7           1848630      4.15%     95.29% # Number of insts issued each cycle
system.cpu00.iq.issued_per_cycle::8           2097986      4.71%    100.00% # Number of insts issued each cycle
system.cpu00.iq.issued_per_cycle::overflows            0      0.00%    100.00% # Number of insts issued each cycle
system.cpu00.iq.issued_per_cycle::min_value            0                       # Number of insts issued each cycle
system.cpu00.iq.issued_per_cycle::max_value            8                       # Number of insts issued each cycle
system.cpu00.iq.issued_per_cycle::total      44526757                       # Number of insts issued each cycle
system.cpu00.iq.fu_full::No_OpClass                 0      0.00%      0.00% # attempts to use FU when none available
system.cpu00.iq.fu_full::IntAlu               1070085     33.41%     33.41% # attempts to use FU when none available
system.cpu00.iq.fu_full::IntMult               524326     16.37%     49.78% # attempts to use FU when none available
system.cpu00.iq.fu_full::IntDiv                     0      0.00%     49.78% # attempts to use FU when none available
system.cpu00.iq.fu_full::FloatAdd               32161      1.00%     50.78% # attempts to use FU when none available
system.cpu00.iq.fu_full::FloatCmp                   0      0.00%     50.78% # attempts to use FU when none available
system.cpu00.iq.fu_full::FloatCvt                   0      0.00%     50.78% # attempts to use FU when none available
system.cpu00.iq.fu_full::FloatMult             653514     20.40%     71.18% # attempts to use FU when none available
system.cpu00.iq.fu_full::FloatDiv                6930      0.22%     71.40% # attempts to use FU when none available
system.cpu00.iq.fu_full::FloatSqrt                  0      0.00%     71.40% # attempts to use FU when none available
system.cpu00.iq.fu_full::SimdAdd                    0      0.00%     71.40% # attempts to use FU when none available
system.cpu00.iq.fu_full::SimdAddAcc                 0      0.00%     71.40% # attempts to use FU when none available
system.cpu00.iq.fu_full::SimdAlu                    0      0.00%     71.40% # attempts to use FU when none available
system.cpu00.iq.fu_full::SimdCmp                    0      0.00%     71.40% # attempts to use FU when none available
system.cpu00.iq.fu_full::SimdCvt                    0      0.00%     71.40% # attempts to use FU when none available
system.cpu00.iq.fu_full::SimdMisc                   0      0.00%     71.40% # attempts to use FU when none available
system.cpu00.iq.fu_full::SimdMult                   0      0.00%     71.40% # attempts to use FU when none available
system.cpu00.iq.fu_full::SimdMultAcc                0      0.00%     71.40% # attempts to use FU when none available
system.cpu00.iq.fu_full::SimdShift                  0      0.00%     71.40% # attempts to use FU when none available
system.cpu00.iq.fu_full::SimdShiftAcc               0      0.00%     71.40% # attempts to use FU when none available
system.cpu00.iq.fu_full::SimdSqrt                   0      0.00%     71.40% # attempts to use FU when none available
system.cpu00.iq.fu_full::SimdFloatAdd               0      0.00%     71.40% # attempts to use FU when none available
system.cpu00.iq.fu_full::SimdFloatAlu               0      0.00%     71.40% # attempts to use FU when none available
system.cpu00.iq.fu_full::SimdFloatCmp               0      0.00%     71.40% # attempts to use FU when none available
system.cpu00.iq.fu_full::SimdFloatCvt               0      0.00%     71.40% # attempts to use FU when none available
system.cpu00.iq.fu_full::SimdFloatDiv               0      0.00%     71.40% # attempts to use FU when none available
system.cpu00.iq.fu_full::SimdFloatMisc              0      0.00%     71.40% # attempts to use FU when none available
system.cpu00.iq.fu_full::SimdFloatMult              0      0.00%     71.40% # attempts to use FU when none available
system.cpu00.iq.fu_full::SimdFloatMultAcc            0      0.00%     71.40% # attempts to use FU when none available
system.cpu00.iq.fu_full::SimdFloatSqrt              0      0.00%     71.40% # attempts to use FU when none available
system.cpu00.iq.fu_full::MemRead               906229     28.29%     99.69% # attempts to use FU when none available
system.cpu00.iq.fu_full::MemWrite                9927      0.31%    100.00% # attempts to use FU when none available
system.cpu00.iq.fu_full::IprAccess                  0      0.00%    100.00% # attempts to use FU when none available
system.cpu00.iq.fu_full::InstPrefetch               0      0.00%    100.00% # attempts to use FU when none available
system.cpu00.iq.FU_type_0::No_OpClass               0      0.00%      0.00% # Type of FU issued
system.cpu00.iq.FU_type_0::IntAlu            77296263     66.22%     66.22% # Type of FU issued
system.cpu00.iq.FU_type_0::IntMult            2395116      2.05%     68.27% # Type of FU issued
system.cpu00.iq.FU_type_0::IntDiv                   0      0.00%     68.27% # Type of FU issued
system.cpu00.iq.FU_type_0::FloatAdd           4750222      4.07%     72.34% # Type of FU issued
system.cpu00.iq.FU_type_0::FloatCmp                30      0.00%     72.34% # Type of FU issued
system.cpu00.iq.FU_type_0::FloatCvt                 0      0.00%     72.34% # Type of FU issued
system.cpu00.iq.FU_type_0::FloatMult          3460716      2.96%     75.30% # Type of FU issued
system.cpu00.iq.FU_type_0::FloatDiv              8382      0.01%     75.31% # Type of FU issued
system.cpu00.iq.FU_type_0::FloatSqrt                0      0.00%     75.31% # Type of FU issued
system.cpu00.iq.FU_type_0::SimdAdd                  0      0.00%     75.31% # Type of FU issued
system.cpu00.iq.FU_type_0::SimdAddAcc               0      0.00%     75.31% # Type of FU issued
system.cpu00.iq.FU_type_0::SimdAlu                  0      0.00%     75.31% # Type of FU issued
system.cpu00.iq.FU_type_0::SimdCmp                  0      0.00%     75.31% # Type of FU issued
system.cpu00.iq.FU_type_0::SimdCvt                  0      0.00%     75.31% # Type of FU issued
system.cpu00.iq.FU_type_0::SimdMisc                 0      0.00%     75.31% # Type of FU issued
system.cpu00.iq.FU_type_0::SimdMult                 0      0.00%     75.31% # Type of FU issued
system.cpu00.iq.FU_type_0::SimdMultAcc              0      0.00%     75.31% # Type of FU issued
system.cpu00.iq.FU_type_0::SimdShift                0      0.00%     75.31% # Type of FU issued
system.cpu00.iq.FU_type_0::SimdShiftAcc             0      0.00%     75.31% # Type of FU issued
system.cpu00.iq.FU_type_0::SimdSqrt                 0      0.00%     75.31% # Type of FU issued
system.cpu00.iq.FU_type_0::SimdFloatAdd             0      0.00%     75.31% # Type of FU issued
system.cpu00.iq.FU_type_0::SimdFloatAlu             0      0.00%     75.31% # Type of FU issued
system.cpu00.iq.FU_type_0::SimdFloatCmp             0      0.00%     75.31% # Type of FU issued
system.cpu00.iq.FU_type_0::SimdFloatCvt             0      0.00%     75.31% # Type of FU issued
system.cpu00.iq.FU_type_0::SimdFloatDiv             0      0.00%     75.31% # Type of FU issued
system.cpu00.iq.FU_type_0::SimdFloatMisc            0      0.00%     75.31% # Type of FU issued
system.cpu00.iq.FU_type_0::SimdFloatMult            0      0.00%     75.31% # Type of FU issued
system.cpu00.iq.FU_type_0::SimdFloatMultAcc            0      0.00%     75.31% # Type of FU issued
system.cpu00.iq.FU_type_0::SimdFloatSqrt            0      0.00%     75.31% # Type of FU issued
system.cpu00.iq.FU_type_0::MemRead           21294825     18.24%     93.55% # Type of FU issued
system.cpu00.iq.FU_type_0::MemWrite           7529670      6.45%    100.00% # Type of FU issued
system.cpu00.iq.FU_type_0::IprAccess                0      0.00%    100.00% # Type of FU issued
system.cpu00.iq.FU_type_0::InstPrefetch             0      0.00%    100.00% # Type of FU issued
system.cpu00.iq.FU_type_0::total            116735224                       # Type of FU issued
system.cpu00.iq.rate                         2.608024                       # Inst issue rate
system.cpu00.iq.fu_busy_cnt                   3203172                       # FU busy when requested
system.cpu00.iq.fu_busy_rate                 0.027440                       # FU busy rate (busy events/executed inst)
system.cpu00.iq.int_inst_queue_reads        240847826                       # Number of integer instruction queue reads
system.cpu00.iq.int_inst_queue_writes        97931201                       # Number of integer instruction queue writes
system.cpu00.iq.int_inst_queue_wakeup_accesses     97139378                       # Number of integer instruction queue wakeup accesses
system.cpu00.iq.fp_inst_queue_reads          40371942                       # Number of floating instruction queue reads
system.cpu00.iq.fp_inst_queue_writes         19594610                       # Number of floating instruction queue writes
system.cpu00.iq.fp_inst_queue_wakeup_accesses     19363903                       # Number of floating instruction queue wakeup accesses
system.cpu00.iq.int_alu_accesses             99095877                       # Number of integer alu accesses
system.cpu00.iq.fp_alu_accesses              20842519                       # Number of floating point alu accesses
system.cpu00.iew.lsq.thread0.forwLoads        1084576                       # Number of loads that had data forwarded from stores
system.cpu00.iew.lsq.thread0.invAddrLoads            0                       # Number of loads ignored due to an invalid address
system.cpu00.iew.lsq.thread0.squashedLoads       144344                       # Number of loads squashed
system.cpu00.iew.lsq.thread0.ignoredResponses           65                       # Number of memory responses ignored because the instruction is squashed
system.cpu00.iew.lsq.thread0.memOrderViolation          921                       # Number of memory ordering violations
system.cpu00.iew.lsq.thread0.squashedStores        32572                       # Number of stores squashed
system.cpu00.iew.lsq.thread0.invAddrSwpfs            0                       # Number of software prefetches ignored due to an invalid address
system.cpu00.iew.lsq.thread0.blockedLoads            0                       # Number of blocked loads due to partial load-store forwarding
system.cpu00.iew.lsq.thread0.rescheduledLoads          226                       # Number of loads that were rescheduled
system.cpu00.iew.lsq.thread0.cacheBlocked       130060                       # Number of times an access to memory failed due to the cache being blocked
system.cpu00.iew.iewIdleCycles                      0                       # Number of cycles IEW is idle
system.cpu00.iew.iewSquashCycles                24750                       # Number of cycles IEW is squashing
system.cpu00.iew.iewBlockCycles                299006                       # Number of cycles IEW is blocking
system.cpu00.iew.iewUnblockCycles              348061                       # Number of cycles IEW is unblocking
system.cpu00.iew.iewDispatchedInsts         121591003                       # Number of instructions dispatched to IQ
system.cpu00.iew.iewDispSquashedInsts            5199                       # Number of squashed instructions skipped by dispatch
system.cpu00.iew.iewDispLoadInsts            21201736                       # Number of dispatched load instructions
system.cpu00.iew.iewDispStoreInsts            7540493                       # Number of dispatched store instructions
system.cpu00.iew.iewDispNonSpecInsts             1956                       # Number of dispatched non-speculative instructions
system.cpu00.iew.iewIQFullEvents                21612                       # Number of times the IQ has become full, causing a stall
system.cpu00.iew.iewLSQFullEvents              309314                       # Number of times the LSQ has become full, causing a stall
system.cpu00.iew.memOrderViolationEvents          921                       # Number of memory order violations
system.cpu00.iew.predictedTakenIncorrect        17904                       # Number of branches that were predicted taken incorrectly
system.cpu00.iew.predictedNotTakenIncorrect         4110                       # Number of branches that were predicted not taken incorrectly
system.cpu00.iew.branchMispredicts              22014                       # Number of branch mispredicts detected at execute
system.cpu00.iew.iewExecutedInsts           116657185                       # Number of executed instructions
system.cpu00.iew.iewExecLoadInsts            21259073                       # Number of load instructions executed
system.cpu00.iew.iewExecSquashedInsts           78039                       # Number of squashed instructions skipped in execute
system.cpu00.iew.exec_swp                           0                       # number of swp insts executed
system.cpu00.iew.exec_nop                     4820855                       # number of nop insts executed
system.cpu00.iew.exec_refs                   28787034                       # number of memory reference insts executed
system.cpu00.iew.exec_branches               16317486                       # Number of branches executed
system.cpu00.iew.exec_stores                  7527961                       # Number of stores executed
system.cpu00.iew.exec_rate                   2.606280                       # Inst execution rate
system.cpu00.iew.wb_sent                    116518574                       # cumulative count of insts sent to commit
system.cpu00.iew.wb_count                   116503281                       # cumulative count of insts written-back
system.cpu00.iew.wb_producers                78231703                       # num instructions producing a value
system.cpu00.iew.wb_consumers               107023906                       # num instructions consuming a value
system.cpu00.iew.wb_rate                     2.602842                       # insts written-back per cycle
system.cpu00.iew.wb_fanout                   0.730974                       # average fanout of values written-back
system.cpu00.commit.commitSquashedInsts        724445                       # The number of squashed insts skipped by commit
system.cpu00.commit.commitNonSpecStalls          2779                       # The number of times commit has been forced to stall to communicate backwards
system.cpu00.commit.branchMispredicts           21152                       # The number of times a branch was mispredicted
system.cpu00.commit.committed_per_cycle::samples     44421488                       # Number of insts commited each cycle
system.cpu00.commit.committed_per_cycle::mean     2.719217                       # Number of insts commited each cycle
system.cpu00.commit.committed_per_cycle::stdev     3.262012                       # Number of insts commited each cycle
system.cpu00.commit.committed_per_cycle::underflows            0      0.00%      0.00% # Number of insts commited each cycle
system.cpu00.commit.committed_per_cycle::0     20252675     45.59%     45.59% # Number of insts commited each cycle
system.cpu00.commit.committed_per_cycle::1      3940848      8.87%     54.46% # Number of insts commited each cycle
system.cpu00.commit.committed_per_cycle::2      3352351      7.55%     62.01% # Number of insts commited each cycle
system.cpu00.commit.committed_per_cycle::3      1968191      4.43%     66.44% # Number of insts commited each cycle
system.cpu00.commit.committed_per_cycle::4      2205854      4.97%     71.41% # Number of insts commited each cycle
system.cpu00.commit.committed_per_cycle::5      1591607      3.58%     74.99% # Number of insts commited each cycle
system.cpu00.commit.committed_per_cycle::6       622003      1.40%     76.39% # Number of insts commited each cycle
system.cpu00.commit.committed_per_cycle::7       175597      0.40%     76.79% # Number of insts commited each cycle
system.cpu00.commit.committed_per_cycle::8     10312362     23.21%    100.00% # Number of insts commited each cycle
system.cpu00.commit.committed_per_cycle::overflows            0      0.00%    100.00% # Number of insts commited each cycle
system.cpu00.commit.committed_per_cycle::min_value            0                       # Number of insts commited each cycle
system.cpu00.commit.committed_per_cycle::max_value            8                       # Number of insts commited each cycle
system.cpu00.commit.committed_per_cycle::total     44421488                       # Number of insts commited each cycle
system.cpu00.commit.committedInsts          120791667                       # Number of instructions committed
system.cpu00.commit.committedOps            120791667                       # Number of ops (including micro ops) committed
system.cpu00.commit.swp_count                       0                       # Number of s/w prefetches committed
system.cpu00.commit.refs                     28565313                       # Number of memory references committed
system.cpu00.commit.loads                    21057392                       # Number of loads committed
system.cpu00.commit.membars                      1102                       # Number of memory barriers committed
system.cpu00.commit.branches                 16205448                       # Number of branches committed
system.cpu00.commit.fp_insts                 19355700                       # Number of committed floating point instructions.
system.cpu00.commit.int_insts               108332326                       # Number of committed integer instructions.
system.cpu00.commit.function_calls            3202145                       # Number of function calls committed.
system.cpu00.commit.op_class_0::No_OpClass      4776275      3.95%      3.95% # Class of committed instruction
system.cpu00.commit.op_class_0::IntAlu       76846458     63.62%     67.57% # Class of committed instruction
system.cpu00.commit.op_class_0::IntMult       2389242      1.98%     69.55% # Class of committed instruction
system.cpu00.commit.op_class_0::IntDiv              0      0.00%     69.55% # Class of committed instruction
system.cpu00.commit.op_class_0::FloatAdd      4744804      3.93%     73.48% # Class of committed instruction
system.cpu00.commit.op_class_0::FloatCmp           27      0.00%     73.48% # Class of committed instruction
system.cpu00.commit.op_class_0::FloatCvt            0      0.00%     73.48% # Class of committed instruction
system.cpu00.commit.op_class_0::FloatMult      3460317      2.86%     76.34% # Class of committed instruction
system.cpu00.commit.op_class_0::FloatDiv         8128      0.01%     76.35% # Class of committed instruction
system.cpu00.commit.op_class_0::FloatSqrt            0      0.00%     76.35% # Class of committed instruction
system.cpu00.commit.op_class_0::SimdAdd             0      0.00%     76.35% # Class of committed instruction
system.cpu00.commit.op_class_0::SimdAddAcc            0      0.00%     76.35% # Class of committed instruction
system.cpu00.commit.op_class_0::SimdAlu             0      0.00%     76.35% # Class of committed instruction
system.cpu00.commit.op_class_0::SimdCmp             0      0.00%     76.35% # Class of committed instruction
system.cpu00.commit.op_class_0::SimdCvt             0      0.00%     76.35% # Class of committed instruction
system.cpu00.commit.op_class_0::SimdMisc            0      0.00%     76.35% # Class of committed instruction
system.cpu00.commit.op_class_0::SimdMult            0      0.00%     76.35% # Class of committed instruction
system.cpu00.commit.op_class_0::SimdMultAcc            0      0.00%     76.35% # Class of committed instruction
system.cpu00.commit.op_class_0::SimdShift            0      0.00%     76.35% # Class of committed instruction
system.cpu00.commit.op_class_0::SimdShiftAcc            0      0.00%     76.35% # Class of committed instruction
system.cpu00.commit.op_class_0::SimdSqrt            0      0.00%     76.35% # Class of committed instruction
system.cpu00.commit.op_class_0::SimdFloatAdd            0      0.00%     76.35% # Class of committed instruction
system.cpu00.commit.op_class_0::SimdFloatAlu            0      0.00%     76.35% # Class of committed instruction
system.cpu00.commit.op_class_0::SimdFloatCmp            0      0.00%     76.35% # Class of committed instruction
system.cpu00.commit.op_class_0::SimdFloatCvt            0      0.00%     76.35% # Class of committed instruction
system.cpu00.commit.op_class_0::SimdFloatDiv            0      0.00%     76.35% # Class of committed instruction
system.cpu00.commit.op_class_0::SimdFloatMisc            0      0.00%     76.35% # Class of committed instruction
system.cpu00.commit.op_class_0::SimdFloatMult            0      0.00%     76.35% # Class of committed instruction
system.cpu00.commit.op_class_0::SimdFloatMultAcc            0      0.00%     76.35% # Class of committed instruction
system.cpu00.commit.op_class_0::SimdFloatSqrt            0      0.00%     76.35% # Class of committed instruction
system.cpu00.commit.op_class_0::MemRead      21058494     17.43%     93.78% # Class of committed instruction
system.cpu00.commit.op_class_0::MemWrite      7507922      6.22%    100.00% # Class of committed instruction
system.cpu00.commit.op_class_0::IprAccess            0      0.00%    100.00% # Class of committed instruction
system.cpu00.commit.op_class_0::InstPrefetch            0      0.00%    100.00% # Class of committed instruction
system.cpu00.commit.op_class_0::total       120791667                       # Class of committed instruction
system.cpu00.commit.bw_lim_events            10312362                       # number cycles where commit BW limit reached
system.cpu00.rob.rob_reads                  155588929                       # The number of ROB reads
system.cpu00.rob.rob_writes                 243137529                       # The number of ROB writes
system.cpu00.timesIdled                          1696                       # Number of times that the entire CPU went into an idle state and unscheduled itself
system.cpu00.idleCycles                        233275                       # Total number of cycles that the CPU has spent unscheduled due to idling
system.cpu00.quiesceCycles                     967905                       # Total number of cycles that CPU has spent quiesced or waiting for an interrupt
system.cpu00.committedInsts                 116015392                       # Number of Instructions Simulated
system.cpu00.committedOps                   116015392                       # Number of Ops (including micro ops) Simulated
system.cpu00.cpi                             0.385811                       # CPI: Cycles Per Instruction
system.cpu00.cpi_total                       0.385811                       # CPI: Total CPI of All Threads
system.cpu00.ipc                             2.591942                       # IPC: Instructions Per Cycle
system.cpu00.ipc_total                       2.591942                       # IPC: Total IPC of All Threads
system.cpu00.int_regfile_reads              148315108                       # number of integer regfile reads
system.cpu00.int_regfile_writes              79446383                       # number of integer regfile writes
system.cpu00.fp_regfile_reads                18305673                       # number of floating regfile reads
system.cpu00.fp_regfile_writes               14838199                       # number of floating regfile writes
system.cpu00.misc_regfile_reads                265195                       # number of misc regfile reads
system.cpu00.misc_regfile_writes                 2454                       # number of misc regfile writes
system.cpu00.dcache.tags.replacements          511585                       # number of replacements
system.cpu00.dcache.tags.tagsinuse          63.949594                       # Cycle average of tags in use
system.cpu00.dcache.tags.total_refs          26330482                       # Total number of references to valid blocks.
system.cpu00.dcache.tags.sampled_refs          511649                       # Sample count of references to valid blocks.
system.cpu00.dcache.tags.avg_refs           51.462002                       # Average number of references to valid blocks.
system.cpu00.dcache.tags.warmup_cycle        84679857                       # Cycle when the warmup percentage was hit.
system.cpu00.dcache.tags.occ_blocks::cpu00.data    63.949594                       # Average occupied blocks per requestor
system.cpu00.dcache.tags.occ_percent::cpu00.data     0.999212                       # Average percentage of cache occupancy
system.cpu00.dcache.tags.occ_percent::total     0.999212                       # Average percentage of cache occupancy
system.cpu00.dcache.tags.occ_task_id_blocks::1024           64                       # Occupied blocks per task id
system.cpu00.dcache.tags.age_task_id_blocks_1024::0           33                       # Occupied blocks per task id
system.cpu00.dcache.tags.age_task_id_blocks_1024::1           31                       # Occupied blocks per task id
system.cpu00.dcache.tags.occ_task_id_percent::1024            1                       # Percentage of cache occupancy per task id
system.cpu00.dcache.tags.tag_accesses        55623940                       # Number of tag accesses
system.cpu00.dcache.tags.data_accesses       55623940                       # Number of data accesses
system.cpu00.dcache.ReadReq_hits::cpu00.data     18993097                       # number of ReadReq hits
system.cpu00.dcache.ReadReq_hits::total      18993097                       # number of ReadReq hits
system.cpu00.dcache.WriteReq_hits::cpu00.data      7334924                       # number of WriteReq hits
system.cpu00.dcache.WriteReq_hits::total      7334924                       # number of WriteReq hits
system.cpu00.dcache.LoadLockedReq_hits::cpu00.data          929                       # number of LoadLockedReq hits
system.cpu00.dcache.LoadLockedReq_hits::total          929                       # number of LoadLockedReq hits
system.cpu00.dcache.StoreCondReq_hits::cpu00.data         1214                       # number of StoreCondReq hits
system.cpu00.dcache.StoreCondReq_hits::total         1214                       # number of StoreCondReq hits
system.cpu00.dcache.demand_hits::cpu00.data     26328021                       # number of demand (read+write) hits
system.cpu00.dcache.demand_hits::total       26328021                       # number of demand (read+write) hits
system.cpu00.dcache.overall_hits::cpu00.data     26328021                       # number of overall hits
system.cpu00.dcache.overall_hits::total      26328021                       # number of overall hits
system.cpu00.dcache.ReadReq_misses::cpu00.data      1053753                       # number of ReadReq misses
system.cpu00.dcache.ReadReq_misses::total      1053753                       # number of ReadReq misses
system.cpu00.dcache.WriteReq_misses::cpu00.data       171771                       # number of WriteReq misses
system.cpu00.dcache.WriteReq_misses::total       171771                       # number of WriteReq misses
system.cpu00.dcache.LoadLockedReq_misses::cpu00.data          361                       # number of LoadLockedReq misses
system.cpu00.dcache.LoadLockedReq_misses::total          361                       # number of LoadLockedReq misses
system.cpu00.dcache.StoreCondReq_misses::cpu00.data           12                       # number of StoreCondReq misses
system.cpu00.dcache.StoreCondReq_misses::total           12                       # number of StoreCondReq misses
system.cpu00.dcache.demand_misses::cpu00.data      1225524                       # number of demand (read+write) misses
system.cpu00.dcache.demand_misses::total      1225524                       # number of demand (read+write) misses
system.cpu00.dcache.overall_misses::cpu00.data      1225524                       # number of overall misses
system.cpu00.dcache.overall_misses::total      1225524                       # number of overall misses
system.cpu00.dcache.ReadReq_miss_latency::cpu00.data  77405335182                       # number of ReadReq miss cycles
system.cpu00.dcache.ReadReq_miss_latency::total  77405335182                       # number of ReadReq miss cycles
system.cpu00.dcache.WriteReq_miss_latency::cpu00.data  13380840479                       # number of WriteReq miss cycles
system.cpu00.dcache.WriteReq_miss_latency::total  13380840479                       # number of WriteReq miss cycles
system.cpu00.dcache.LoadLockedReq_miss_latency::cpu00.data      4431537                       # number of LoadLockedReq miss cycles
system.cpu00.dcache.LoadLockedReq_miss_latency::total      4431537                       # number of LoadLockedReq miss cycles
system.cpu00.dcache.StoreCondReq_miss_latency::cpu00.data        77787                       # number of StoreCondReq miss cycles
system.cpu00.dcache.StoreCondReq_miss_latency::total        77787                       # number of StoreCondReq miss cycles
system.cpu00.dcache.demand_miss_latency::cpu00.data  90786175661                       # number of demand (read+write) miss cycles
system.cpu00.dcache.demand_miss_latency::total  90786175661                       # number of demand (read+write) miss cycles
system.cpu00.dcache.overall_miss_latency::cpu00.data  90786175661                       # number of overall miss cycles
system.cpu00.dcache.overall_miss_latency::total  90786175661                       # number of overall miss cycles
system.cpu00.dcache.ReadReq_accesses::cpu00.data     20046850                       # number of ReadReq accesses(hits+misses)
system.cpu00.dcache.ReadReq_accesses::total     20046850                       # number of ReadReq accesses(hits+misses)
system.cpu00.dcache.WriteReq_accesses::cpu00.data      7506695                       # number of WriteReq accesses(hits+misses)
system.cpu00.dcache.WriteReq_accesses::total      7506695                       # number of WriteReq accesses(hits+misses)
system.cpu00.dcache.LoadLockedReq_accesses::cpu00.data         1290                       # number of LoadLockedReq accesses(hits+misses)
system.cpu00.dcache.LoadLockedReq_accesses::total         1290                       # number of LoadLockedReq accesses(hits+misses)
system.cpu00.dcache.StoreCondReq_accesses::cpu00.data         1226                       # number of StoreCondReq accesses(hits+misses)
system.cpu00.dcache.StoreCondReq_accesses::total         1226                       # number of StoreCondReq accesses(hits+misses)
system.cpu00.dcache.demand_accesses::cpu00.data     27553545                       # number of demand (read+write) accesses
system.cpu00.dcache.demand_accesses::total     27553545                       # number of demand (read+write) accesses
system.cpu00.dcache.overall_accesses::cpu00.data     27553545                       # number of overall (read+write) accesses
system.cpu00.dcache.overall_accesses::total     27553545                       # number of overall (read+write) accesses
system.cpu00.dcache.ReadReq_miss_rate::cpu00.data     0.052565                       # miss rate for ReadReq accesses
system.cpu00.dcache.ReadReq_miss_rate::total     0.052565                       # miss rate for ReadReq accesses
system.cpu00.dcache.WriteReq_miss_rate::cpu00.data     0.022882                       # miss rate for WriteReq accesses
system.cpu00.dcache.WriteReq_miss_rate::total     0.022882                       # miss rate for WriteReq accesses
system.cpu00.dcache.LoadLockedReq_miss_rate::cpu00.data     0.279845                       # miss rate for LoadLockedReq accesses
system.cpu00.dcache.LoadLockedReq_miss_rate::total     0.279845                       # miss rate for LoadLockedReq accesses
system.cpu00.dcache.StoreCondReq_miss_rate::cpu00.data     0.009788                       # miss rate for StoreCondReq accesses
system.cpu00.dcache.StoreCondReq_miss_rate::total     0.009788                       # miss rate for StoreCondReq accesses
system.cpu00.dcache.demand_miss_rate::cpu00.data     0.044478                       # miss rate for demand accesses
system.cpu00.dcache.demand_miss_rate::total     0.044478                       # miss rate for demand accesses
system.cpu00.dcache.overall_miss_rate::cpu00.data     0.044478                       # miss rate for overall accesses
system.cpu00.dcache.overall_miss_rate::total     0.044478                       # miss rate for overall accesses
system.cpu00.dcache.ReadReq_avg_miss_latency::cpu00.data 73456.811209                       # average ReadReq miss latency
system.cpu00.dcache.ReadReq_avg_miss_latency::total 73456.811209                       # average ReadReq miss latency
system.cpu00.dcache.WriteReq_avg_miss_latency::cpu00.data 77899.298945                       # average WriteReq miss latency
system.cpu00.dcache.WriteReq_avg_miss_latency::total 77899.298945                       # average WriteReq miss latency
system.cpu00.dcache.LoadLockedReq_avg_miss_latency::cpu00.data 12275.725762                       # average LoadLockedReq miss latency
system.cpu00.dcache.LoadLockedReq_avg_miss_latency::total 12275.725762                       # average LoadLockedReq miss latency
system.cpu00.dcache.StoreCondReq_avg_miss_latency::cpu00.data  6482.250000                       # average StoreCondReq miss latency
system.cpu00.dcache.StoreCondReq_avg_miss_latency::total  6482.250000                       # average StoreCondReq miss latency
system.cpu00.dcache.demand_avg_miss_latency::cpu00.data 74079.475931                       # average overall miss latency
system.cpu00.dcache.demand_avg_miss_latency::total 74079.475931                       # average overall miss latency
system.cpu00.dcache.overall_avg_miss_latency::cpu00.data 74079.475931                       # average overall miss latency
system.cpu00.dcache.overall_avg_miss_latency::total 74079.475931                       # average overall miss latency
system.cpu00.dcache.blocked_cycles::no_mshrs       396360                       # number of cycles access was blocked
system.cpu00.dcache.blocked_cycles::no_targets          294                       # number of cycles access was blocked
system.cpu00.dcache.blocked::no_mshrs           11827                       # number of cycles access was blocked
system.cpu00.dcache.blocked::no_targets             3                       # number of cycles access was blocked
system.cpu00.dcache.avg_blocked_cycles::no_mshrs    33.513148                       # average number of cycles each access was blocked
system.cpu00.dcache.avg_blocked_cycles::no_targets           98                       # average number of cycles each access was blocked
system.cpu00.dcache.fast_writes                     0                       # number of fast writes performed
system.cpu00.dcache.cache_copies                    0                       # number of cache copies performed
system.cpu00.dcache.writebacks::writebacks       278415                       # number of writebacks
system.cpu00.dcache.writebacks::total          278415                       # number of writebacks
system.cpu00.dcache.ReadReq_mshr_hits::cpu00.data       635936                       # number of ReadReq MSHR hits
system.cpu00.dcache.ReadReq_mshr_hits::total       635936                       # number of ReadReq MSHR hits
system.cpu00.dcache.WriteReq_mshr_hits::cpu00.data        77808                       # number of WriteReq MSHR hits
system.cpu00.dcache.WriteReq_mshr_hits::total        77808                       # number of WriteReq MSHR hits
system.cpu00.dcache.LoadLockedReq_mshr_hits::cpu00.data          171                       # number of LoadLockedReq MSHR hits
system.cpu00.dcache.LoadLockedReq_mshr_hits::total          171                       # number of LoadLockedReq MSHR hits
system.cpu00.dcache.demand_mshr_hits::cpu00.data       713744                       # number of demand (read+write) MSHR hits
system.cpu00.dcache.demand_mshr_hits::total       713744                       # number of demand (read+write) MSHR hits
system.cpu00.dcache.overall_mshr_hits::cpu00.data       713744                       # number of overall MSHR hits
system.cpu00.dcache.overall_mshr_hits::total       713744                       # number of overall MSHR hits
system.cpu00.dcache.ReadReq_mshr_misses::cpu00.data       417817                       # number of ReadReq MSHR misses
system.cpu00.dcache.ReadReq_mshr_misses::total       417817                       # number of ReadReq MSHR misses
system.cpu00.dcache.WriteReq_mshr_misses::cpu00.data        93963                       # number of WriteReq MSHR misses
system.cpu00.dcache.WriteReq_mshr_misses::total        93963                       # number of WriteReq MSHR misses
system.cpu00.dcache.LoadLockedReq_mshr_misses::cpu00.data          190                       # number of LoadLockedReq MSHR misses
system.cpu00.dcache.LoadLockedReq_mshr_misses::total          190                       # number of LoadLockedReq MSHR misses
system.cpu00.dcache.StoreCondReq_mshr_misses::cpu00.data           11                       # number of StoreCondReq MSHR misses
system.cpu00.dcache.StoreCondReq_mshr_misses::total           11                       # number of StoreCondReq MSHR misses
system.cpu00.dcache.demand_mshr_misses::cpu00.data       511780                       # number of demand (read+write) MSHR misses
system.cpu00.dcache.demand_mshr_misses::total       511780                       # number of demand (read+write) MSHR misses
system.cpu00.dcache.overall_mshr_misses::cpu00.data       511780                       # number of overall MSHR misses
system.cpu00.dcache.overall_mshr_misses::total       511780                       # number of overall MSHR misses
system.cpu00.dcache.ReadReq_mshr_miss_latency::cpu00.data  16586773947                       # number of ReadReq MSHR miss cycles
system.cpu00.dcache.ReadReq_mshr_miss_latency::total  16586773947                       # number of ReadReq MSHR miss cycles
system.cpu00.dcache.WriteReq_mshr_miss_latency::cpu00.data   8606919807                       # number of WriteReq MSHR miss cycles
system.cpu00.dcache.WriteReq_mshr_miss_latency::total   8606919807                       # number of WriteReq MSHR miss cycles
system.cpu00.dcache.LoadLockedReq_mshr_miss_latency::cpu00.data      1861083                       # number of LoadLockedReq MSHR miss cycles
system.cpu00.dcache.LoadLockedReq_mshr_miss_latency::total      1861083                       # number of LoadLockedReq MSHR miss cycles
system.cpu00.dcache.StoreCondReq_mshr_miss_latency::cpu00.data        65016                       # number of StoreCondReq MSHR miss cycles
system.cpu00.dcache.StoreCondReq_mshr_miss_latency::total        65016                       # number of StoreCondReq MSHR miss cycles
system.cpu00.dcache.demand_mshr_miss_latency::cpu00.data  25193693754                       # number of demand (read+write) MSHR miss cycles
system.cpu00.dcache.demand_mshr_miss_latency::total  25193693754                       # number of demand (read+write) MSHR miss cycles
system.cpu00.dcache.overall_mshr_miss_latency::cpu00.data  25193693754                       # number of overall MSHR miss cycles
system.cpu00.dcache.overall_mshr_miss_latency::total  25193693754                       # number of overall MSHR miss cycles
system.cpu00.dcache.ReadReq_mshr_miss_rate::cpu00.data     0.020842                       # mshr miss rate for ReadReq accesses
system.cpu00.dcache.ReadReq_mshr_miss_rate::total     0.020842                       # mshr miss rate for ReadReq accesses
system.cpu00.dcache.WriteReq_mshr_miss_rate::cpu00.data     0.012517                       # mshr miss rate for WriteReq accesses
system.cpu00.dcache.WriteReq_mshr_miss_rate::total     0.012517                       # mshr miss rate for WriteReq accesses
system.cpu00.dcache.LoadLockedReq_mshr_miss_rate::cpu00.data     0.147287                       # mshr miss rate for LoadLockedReq accesses
system.cpu00.dcache.LoadLockedReq_mshr_miss_rate::total     0.147287                       # mshr miss rate for LoadLockedReq accesses
system.cpu00.dcache.StoreCondReq_mshr_miss_rate::cpu00.data     0.008972                       # mshr miss rate for StoreCondReq accesses
system.cpu00.dcache.StoreCondReq_mshr_miss_rate::total     0.008972                       # mshr miss rate for StoreCondReq accesses
system.cpu00.dcache.demand_mshr_miss_rate::cpu00.data     0.018574                       # mshr miss rate for demand accesses
system.cpu00.dcache.demand_mshr_miss_rate::total     0.018574                       # mshr miss rate for demand accesses
system.cpu00.dcache.overall_mshr_miss_rate::cpu00.data     0.018574                       # mshr miss rate for overall accesses
system.cpu00.dcache.overall_mshr_miss_rate::total     0.018574                       # mshr miss rate for overall accesses
system.cpu00.dcache.ReadReq_avg_mshr_miss_latency::cpu00.data 39698.657419                       # average ReadReq mshr miss latency
system.cpu00.dcache.ReadReq_avg_mshr_miss_latency::total 39698.657419                       # average ReadReq mshr miss latency
system.cpu00.dcache.WriteReq_avg_mshr_miss_latency::cpu00.data 91599.031608                       # average WriteReq mshr miss latency
system.cpu00.dcache.WriteReq_avg_mshr_miss_latency::total 91599.031608                       # average WriteReq mshr miss latency
system.cpu00.dcache.LoadLockedReq_avg_mshr_miss_latency::cpu00.data  9795.173684                       # average LoadLockedReq mshr miss latency
system.cpu00.dcache.LoadLockedReq_avg_mshr_miss_latency::total  9795.173684                       # average LoadLockedReq mshr miss latency
system.cpu00.dcache.StoreCondReq_avg_mshr_miss_latency::cpu00.data  5910.545455                       # average StoreCondReq mshr miss latency
system.cpu00.dcache.StoreCondReq_avg_mshr_miss_latency::total  5910.545455                       # average StoreCondReq mshr miss latency
system.cpu00.dcache.demand_avg_mshr_miss_latency::cpu00.data 49227.585591                       # average overall mshr miss latency
system.cpu00.dcache.demand_avg_mshr_miss_latency::total 49227.585591                       # average overall mshr miss latency
[...]
system.tol2bus.pkt_count_system.cpu06.dcache.mem_side::system.l2.cpu_side       325992                       # Packet count per connected master and slave (bytes)
system.tol2bus.pkt_count_system.cpu07.icache.mem_side::system.l2.cpu_side          918                       # Packet count per connected master and slave (bytes)
system.tol2bus.pkt_count_system.cpu07.dcache.mem_side::system.l2.cpu_side       339550                       # Packet count per connected master and slave (bytes)
system.tol2bus.pkt_count_system.cpu08.icache.mem_side::system.l2.cpu_side          840                       # Packet count per connected master and slave (bytes)
system.tol2bus.pkt_count_system.cpu08.dcache.mem_side::system.l2.cpu_side       356647                       # Packet count per connected master and slave (bytes)
system.tol2bus.pkt_count_system.cpu09.icache.mem_side::system.l2.cpu_side          849                       # Packet count per connected master and slave (bytes)
system.tol2bus.pkt_count_system.cpu09.dcache.mem_side::system.l2.cpu_side       323077                       # Packet count per connected master and slave (bytes)
system.tol2bus.pkt_count_system.cpu10.icache.mem_side::system.l2.cpu_side          838                       # Packet count per connected master and slave (bytes)
system.tol2bus.pkt_count_system.cpu10.dcache.mem_side::system.l2.cpu_side       344558                       # Packet count per connected master and slave (bytes)
system.tol2bus.pkt_count_system.cpu11.icache.mem_side::system.l2.cpu_side          855                       # Packet count per connected master and slave (bytes)
system.tol2bus.pkt_count_system.cpu11.dcache.mem_side::system.l2.cpu_side       361081                       # Packet count per connected master and slave (bytes)
system.tol2bus.pkt_count_system.cpu12.icache.mem_side::system.l2.cpu_side          849                       # Packet count per connected master and slave (bytes)
system.tol2bus.pkt_count_system.cpu12.dcache.mem_side::system.l2.cpu_side       375032                       # Packet count per connected master and slave (bytes)
system.tol2bus.pkt_count_system.cpu13.icache.mem_side::system.l2.cpu_side          849                       # Packet count per connected master and slave (bytes)
system.tol2bus.pkt_count_system.cpu13.dcache.mem_side::system.l2.cpu_side       336699                       # Packet count per connected master and slave (bytes)
system.tol2bus.pkt_count_system.cpu14.icache.mem_side::system.l2.cpu_side          844                       # Packet count per connected master and slave (bytes)
system.tol2bus.pkt_count_system.cpu14.dcache.mem_side::system.l2.cpu_side       356536                       # Packet count per connected master and slave (bytes)
system.tol2bus.pkt_count_system.cpu15.icache.mem_side::system.l2.cpu_side          838                       # Packet count per connected master and slave (bytes)
system.tol2bus.pkt_count_system.cpu15.dcache.mem_side::system.l2.cpu_side       372444                       # Packet count per connected master and slave (bytes)
system.tol2bus.pkt_count::total               6564034                       # Packet count per connected master and slave (bytes)
system.tol2bus.pkt_size_system.cpu00.icache.mem_side::system.l2.cpu_side       990208                       # Cumulative packet size per connected master and slave (bytes)
system.tol2bus.pkt_size_system.cpu00.dcache.mem_side::system.l2.cpu_side     46185472                       # Cumulative packet size per connected master and slave (bytes)
system.tol2bus.pkt_size_system.cpu01.icache.mem_side::system.l2.cpu_side        41920                       # Cumulative packet size per connected master and slave (bytes)
system.tol2bus.pkt_size_system.cpu01.dcache.mem_side::system.l2.cpu_side      8478528                       # Cumulative packet size per connected master and slave (bytes)
system.tol2bus.pkt_size_system.cpu02.icache.mem_side::system.l2.cpu_side        32256                       # Cumulative packet size per connected master and slave (bytes)
system.tol2bus.pkt_size_system.cpu02.dcache.mem_side::system.l2.cpu_side      9213760                       # Cumulative packet size per connected master and slave (bytes)
system.tol2bus.pkt_size_system.cpu03.icache.mem_side::system.l2.cpu_side        32256                       # Cumulative packet size per connected master and slave (bytes)
system.tol2bus.pkt_size_system.cpu03.dcache.mem_side::system.l2.cpu_side      9243648                       # Cumulative packet size per connected master and slave (bytes)
system.tol2bus.pkt_size_system.cpu04.icache.mem_side::system.l2.cpu_side        28480                       # Cumulative packet size per connected master and slave (bytes)
system.tol2bus.pkt_size_system.cpu04.dcache.mem_side::system.l2.cpu_side      9873728                       # Cumulative packet size per connected master and slave (bytes)
system.tol2bus.pkt_size_system.cpu05.icache.mem_side::system.l2.cpu_side        28672                       # Cumulative packet size per connected master and slave (bytes)
system.tol2bus.pkt_size_system.cpu05.dcache.mem_side::system.l2.cpu_side      8668992                       # Cumulative packet size per connected master and slave (bytes)
system.tol2bus.pkt_size_system.cpu06.icache.mem_side::system.l2.cpu_side        28736                       # Cumulative packet size per connected master and slave (bytes)
system.tol2bus.pkt_size_system.cpu06.dcache.mem_side::system.l2.cpu_side      9723776                       # Cumulative packet size per connected master and slave (bytes)
system.tol2bus.pkt_size_system.cpu07.icache.mem_side::system.l2.cpu_side        31424                       # Cumulative packet size per connected master and slave (bytes)
system.tol2bus.pkt_size_system.cpu07.dcache.mem_side::system.l2.cpu_side      9730944                       # Cumulative packet size per connected master and slave (bytes)
system.tol2bus.pkt_size_system.cpu08.icache.mem_side::system.l2.cpu_side        28480                       # Cumulative packet size per connected master and slave (bytes)
system.tol2bus.pkt_size_system.cpu08.dcache.mem_side::system.l2.cpu_side     10518848                       # Cumulative packet size per connected master and slave (bytes)
system.tol2bus.pkt_size_system.cpu09.icache.mem_side::system.l2.cpu_side        28800                       # Cumulative packet size per connected master and slave (bytes)
system.tol2bus.pkt_size_system.cpu09.dcache.mem_side::system.l2.cpu_side      9654464                       # Cumulative packet size per connected master and slave (bytes)
system.tol2bus.pkt_size_system.cpu10.icache.mem_side::system.l2.cpu_side        28416                       # Cumulative packet size per connected master and slave (bytes)
system.tol2bus.pkt_size_system.cpu10.dcache.mem_side::system.l2.cpu_side     10717056                       # Cumulative packet size per connected master and slave (bytes)
system.tol2bus.pkt_size_system.cpu11.icache.mem_side::system.l2.cpu_side        28992                       # Cumulative packet size per connected master and slave (bytes)
system.tol2bus.pkt_size_system.cpu11.dcache.mem_side::system.l2.cpu_side     10929920                       # Cumulative packet size per connected master and slave (bytes)
system.tol2bus.pkt_size_system.cpu12.icache.mem_side::system.l2.cpu_side        28800                       # Cumulative packet size per connected master and slave (bytes)
system.tol2bus.pkt_size_system.cpu12.dcache.mem_side::system.l2.cpu_side     11234304                       # Cumulative packet size per connected master and slave (bytes)
system.tol2bus.pkt_size_system.cpu13.icache.mem_side::system.l2.cpu_side        28800                       # Cumulative packet size per connected master and slave (bytes)
system.tol2bus.pkt_size_system.cpu13.dcache.mem_side::system.l2.cpu_side     10099008                       # Cumulative packet size per connected master and slave (bytes)
system.tol2bus.pkt_size_system.cpu14.icache.mem_side::system.l2.cpu_side        28608                       # Cumulative packet size per connected master and slave (bytes)
system.tol2bus.pkt_size_system.cpu14.dcache.mem_side::system.l2.cpu_side     10853504                       # Cumulative packet size per connected master and slave (bytes)
system.tol2bus.pkt_size_system.cpu15.icache.mem_side::system.l2.cpu_side        28416                       # Cumulative packet size per connected master and slave (bytes)
system.tol2bus.pkt_size_system.cpu15.dcache.mem_side::system.l2.cpu_side     10947584                       # Cumulative packet size per connected master and slave (bytes)
system.tol2bus.pkt_size::total              197516800                       # Cumulative packet size per connected master and slave (bytes)
system.tol2bus.snoops                          791113                       # Total snoops (count)
system.tol2bus.snoop_fanout::samples          2714882                       # Request fanout histogram
system.tol2bus.snoop_fanout::mean            0.924274                       # Request fanout histogram
system.tol2bus.snoop_fanout::stdev           2.382505                       # Request fanout histogram
system.tol2bus.snoop_fanout::underflows             0      0.00%      0.00% # Request fanout histogram
system.tol2bus.snoop_fanout::0                1818767     66.99%     66.99% # Request fanout histogram
system.tol2bus.snoop_fanout::1                 379156     13.97%     80.96% # Request fanout histogram
system.tol2bus.snoop_fanout::2                 268734      9.90%     90.86% # Request fanout histogram
system.tol2bus.snoop_fanout::3                 152292      5.61%     96.47% # Request fanout histogram
system.tol2bus.snoop_fanout::4                   5476      0.20%     96.67% # Request fanout histogram
system.tol2bus.snoop_fanout::5                   5142      0.19%     96.86% # Request fanout histogram
system.tol2bus.snoop_fanout::6                   5041      0.19%     97.04% # Request fanout histogram
system.tol2bus.snoop_fanout::7                   3780      0.14%     97.18% # Request fanout histogram
system.tol2bus.snoop_fanout::8                   3991      0.15%     97.33% # Request fanout histogram
system.tol2bus.snoop_fanout::9                   4455      0.16%     97.49% # Request fanout histogram
system.tol2bus.snoop_fanout::10                  4458      0.16%     97.66% # Request fanout histogram
system.tol2bus.snoop_fanout::11                  4175      0.15%     97.81% # Request fanout histogram
system.tol2bus.snoop_fanout::12                  4210      0.16%     97.97% # Request fanout histogram
system.tol2bus.snoop_fanout::13                  3533      0.13%     98.10% # Request fanout histogram
system.tol2bus.snoop_fanout::14                  2777      0.10%     98.20% # Request fanout histogram
system.tol2bus.snoop_fanout::15                 48701      1.79%     99.99% # Request fanout histogram
system.tol2bus.snoop_fanout::16                   194      0.01%    100.00% # Request fanout histogram
system.tol2bus.snoop_fanout::17                     0      0.00%    100.00% # Request fanout histogram
system.tol2bus.snoop_fanout::18                     0      0.00%    100.00% # Request fanout histogram
system.tol2bus.snoop_fanout::19                     0      0.00%    100.00% # Request fanout histogram
system.tol2bus.snoop_fanout::20                     0      0.00%    100.00% # Request fanout histogram
system.tol2bus.snoop_fanout::21                     0      0.00%    100.00% # Request fanout histogram
system.tol2bus.snoop_fanout::22                     0      0.00%    100.00% # Request fanout histogram
system.tol2bus.snoop_fanout::23                     0      0.00%    100.00% # Request fanout histogram
system.tol2bus.snoop_fanout::24                     0      0.00%    100.00% # Request fanout histogram
system.tol2bus.snoop_fanout::25                     0      0.00%    100.00% # Request fanout histogram
system.tol2bus.snoop_fanout::26                     0      0.00%    100.00% # Request fanout histogram
system.tol2bus.snoop_fanout::27                     0      0.00%    100.00% # Request fanout histogram
system.tol2bus.snoop_fanout::28                     0      0.00%    100.00% # Request fanout histogram
system.tol2bus.snoop_fanout::29                     0      0.00%    100.00% # Request fanout histogram
system.tol2bus.snoop_fanout::30                     0      0.00%    100.00% # Request fanout histogram
system.tol2bus.snoop_fanout::31                     0      0.00%    100.00% # Request fanout histogram
system.tol2bus.snoop_fanout::32                     0      0.00%    100.00% # Request fanout histogram
system.tol2bus.snoop_fanout::overflows              0      0.00%    100.00% # Request fanout histogram
system.tol2bus.snoop_fanout::min_value              0                       # Request fanout histogram
system.tol2bus.snoop_fanout::max_value             16                       # Request fanout histogram
system.tol2bus.snoop_fanout::total            2714882                       # Request fanout histogram
system.tol2bus.reqLayer0.occupancy         8267129596                       # Layer occupancy (ticks)
system.tol2bus.reqLayer0.utilization             15.6                       # Layer utilization (%)
system.tol2bus.respLayer0.occupancy          28151449                       # Layer occupancy (ticks)
system.tol2bus.respLayer0.utilization             0.1                       # Layer utilization (%)
system.tol2bus.respLayer1.occupancy        1794449380                       # Layer occupancy (ticks)
system.tol2bus.respLayer1.utilization             3.4                       # Layer utilization (%)
system.tol2bus.respLayer2.occupancy           1838233                       # Layer occupancy (ticks)
system.tol2bus.respLayer2.utilization             0.0                       # Layer utilization (%)
system.tol2bus.respLayer3.occupancy         375641578                       # Layer occupancy (ticks)
system.tol2bus.respLayer3.utilization             0.7                       # Layer utilization (%)
system.tol2bus.respLayer4.occupancy           1566039                       # Layer occupancy (ticks)
system.tol2bus.respLayer4.utilization             0.0                       # Layer utilization (%)
system.tol2bus.respLayer5.occupancy         394297462                       # Layer occupancy (ticks)
system.tol2bus.respLayer5.utilization             0.7                       # Layer utilization (%)
system.tol2bus.respLayer6.occupancy           1568339                       # Layer occupancy (ticks)
system.tol2bus.respLayer6.utilization             0.0                       # Layer utilization (%)
system.tol2bus.respLayer7.occupancy         413280399                       # Layer occupancy (ticks)
system.tol2bus.respLayer7.utilization             0.8                       # Layer utilization (%)
system.tol2bus.respLayer8.occupancy           1413840                       # Layer occupancy (ticks)
system.tol2bus.respLayer8.utilization             0.0                       # Layer utilization (%)
system.tol2bus.respLayer9.occupancy         432458661                       # Layer occupancy (ticks)
system.tol2bus.respLayer9.utilization             0.8                       # Layer utilization (%)
system.tol2bus.respLayer10.occupancy          1429004                       # Layer occupancy (ticks)
system.tol2bus.respLayer10.utilization            0.0                       # Layer utilization (%)
system.tol2bus.respLayer11.occupancy        393067717                       # Layer occupancy (ticks)
system.tol2bus.respLayer11.utilization            0.7                       # Layer utilization (%)
system.tol2bus.respLayer12.occupancy          1431360                       # Layer occupancy (ticks)
system.tol2bus.respLayer12.utilization            0.0                       # Layer utilization (%)
system.tol2bus.respLayer13.occupancy        415792995                       # Layer occupancy (ticks)
system.tol2bus.respLayer13.utilization            0.8                       # Layer utilization (%)
system.tol2bus.respLayer14.occupancy          1538098                       # Layer occupancy (ticks)
system.tol2bus.respLayer14.utilization            0.0                       # Layer utilization (%)
system.tol2bus.respLayer15.occupancy        436000847                       # Layer occupancy (ticks)
system.tol2bus.respLayer15.utilization            0.8                       # Layer utilization (%)
system.tol2bus.respLayer16.occupancy          1427728                       # Layer occupancy (ticks)
system.tol2bus.respLayer16.utilization            0.0                       # Layer utilization (%)
system.tol2bus.respLayer17.occupancy        455783618                       # Layer occupancy (ticks)
system.tol2bus.respLayer17.utilization            0.9                       # Layer utilization (%)
system.tol2bus.respLayer18.occupancy          1430600                       # Layer occupancy (ticks)
system.tol2bus.respLayer18.utilization            0.0                       # Layer utilization (%)
system.tol2bus.respLayer19.occupancy        412358399                       # Layer occupancy (ticks)
system.tol2bus.respLayer19.utilization            0.8                       # Layer utilization (%)
system.tol2bus.respLayer20.occupancy          1418565                       # Layer occupancy (ticks)
system.tol2bus.respLayer20.utilization            0.0                       # Layer utilization (%)
system.tol2bus.respLayer21.occupancy        436536834                       # Layer occupancy (ticks)
system.tol2bus.respLayer21.utilization            0.8                       # Layer utilization (%)
system.tol2bus.respLayer22.occupancy          1434867                       # Layer occupancy (ticks)
system.tol2bus.respLayer22.utilization            0.0                       # Layer utilization (%)
system.tol2bus.respLayer23.occupancy        458491960                       # Layer occupancy (ticks)
system.tol2bus.respLayer23.utilization            0.9                       # Layer utilization (%)
system.tol2bus.respLayer24.occupancy          1424712                       # Layer occupancy (ticks)
system.tol2bus.respLayer24.utilization            0.0                       # Layer utilization (%)
system.tol2bus.respLayer25.occupancy        478822879                       # Layer occupancy (ticks)
system.tol2bus.respLayer25.utilization            0.9                       # Layer utilization (%)
system.tol2bus.respLayer26.occupancy          1424058                       # Layer occupancy (ticks)
system.tol2bus.respLayer26.utilization            0.0                       # Layer utilization (%)
system.tol2bus.respLayer27.occupancy        430469922                       # Layer occupancy (ticks)
system.tol2bus.respLayer27.utilization            0.8                       # Layer utilization (%)
system.tol2bus.respLayer28.occupancy          1421921                       # Layer occupancy (ticks)
system.tol2bus.respLayer28.utilization            0.0                       # Layer utilization (%)
system.tol2bus.respLayer29.occupancy        453946702                       # Layer occupancy (ticks)
system.tol2bus.respLayer29.utilization            0.9                       # Layer utilization (%)
system.tol2bus.respLayer30.occupancy          1413261                       # Layer occupancy (ticks)
system.tol2bus.respLayer30.utilization            0.0                       # Layer utilization (%)
system.tol2bus.respLayer31.occupancy        477480204                       # Layer occupancy (ticks)
system.tol2bus.respLayer31.utilization            0.9                       # Layer utilization (%)

---------- End Simulation Statistics   ----------
