
---------- Begin Simulation Statistics ----------
sim_seconds                                  0.001297                       # Number of seconds simulated
sim_ticks                                  1297447760                       # Number of ticks simulated
final_tick                                 1297447760                       # Number of ticks from beginning of simulation (restored from checkpoints and never reset)
sim_freq                                 1000000000000                       # Frequency of simulated ticks
host_inst_rate                                 231036                       # Simulator instruction rate (inst/s)
host_op_rate                                   231036                       # Simulator op (including micro ops) rate (op/s)
host_tick_rate                              129886736                       # Simulator tick rate (ticks/s)
host_mem_usage                                 697228                       # Number of bytes of host memory used
host_seconds                                     9.99                       # Real time elapsed on the host
sim_insts                                     2307826                       # Number of instructions simulated
sim_ops                                       2307826                       # Number of ops (including micro ops) simulated
system.voltage_domain.voltage                       1                       # Voltage in Volts
system.clk_domain.clock                          1000                       # Clock period in ticks
system.mem_ctrls.bytes_read::cpu00.inst        119232                       # Number of bytes read from this memory
system.mem_ctrls.bytes_read::cpu00.data        376640                       # Number of bytes read from this memory
system.mem_ctrls.bytes_read::cpu01.inst         12544                       # Number of bytes read from this memory
system.mem_ctrls.bytes_read::cpu01.data          5952                       # Number of bytes read from this memory
system.mem_ctrls.bytes_read::cpu02.inst          1984                       # Number of bytes read from this memory
system.mem_ctrls.bytes_read::cpu02.data          5632                       # Number of bytes read from this memory
system.mem_ctrls.bytes_read::cpu03.inst           640                       # Number of bytes read from this memory
system.mem_ctrls.bytes_read::cpu03.data          5632                       # Number of bytes read from this memory
system.mem_ctrls.bytes_read::cpu04.inst           256                       # Number of bytes read from this memory
system.mem_ctrls.bytes_read::cpu04.data          4416                       # Number of bytes read from this memory
system.mem_ctrls.bytes_read::cpu05.inst           256                       # Number of bytes read from this memory
system.mem_ctrls.bytes_read::cpu05.data          4352                       # Number of bytes read from this memory
system.mem_ctrls.bytes_read::cpu06.inst          2752                       # Number of bytes read from this memory
system.mem_ctrls.bytes_read::cpu06.data          5056                       # Number of bytes read from this memory
system.mem_ctrls.bytes_read::cpu07.inst           704                       # Number of bytes read from this memory
system.mem_ctrls.bytes_read::cpu07.data          5632                       # Number of bytes read from this memory
system.mem_ctrls.bytes_read::cpu08.inst           640                       # Number of bytes read from this memory
system.mem_ctrls.bytes_read::cpu08.data          5440                       # Number of bytes read from this memory
system.mem_ctrls.bytes_read::cpu09.inst           384                       # Number of bytes read from this memory
system.mem_ctrls.bytes_read::cpu09.data          4928                       # Number of bytes read from this memory
system.mem_ctrls.bytes_read::cpu10.inst           512                       # Number of bytes read from this memory
system.mem_ctrls.bytes_read::cpu10.data          4864                       # Number of bytes read from this memory
system.mem_ctrls.bytes_read::cpu11.inst           768                       # Number of bytes read from this memory
system.mem_ctrls.bytes_read::cpu11.data          4608                       # Number of bytes read from this memory
system.mem_ctrls.bytes_read::cpu12.inst          1536                       # Number of bytes read from this memory
system.mem_ctrls.bytes_read::cpu12.data          5632                       # Number of bytes read from this memory
system.mem_ctrls.bytes_read::cpu13.inst          4416                       # Number of bytes read from this memory
system.mem_ctrls.bytes_read::cpu13.data          5568                       # Number of bytes read from this memory
system.mem_ctrls.bytes_read::cpu14.inst           320                       # Number of bytes read from this memory
system.mem_ctrls.bytes_read::cpu14.data          4416                       # Number of bytes read from this memory
system.mem_ctrls.bytes_read::cpu15.inst          1024                       # Number of bytes read from this memory
system.mem_ctrls.bytes_read::cpu15.data          5376                       # Number of bytes read from this memory
system.mem_ctrls.bytes_read::total             602112                       # Number of bytes read from this memory
system.mem_ctrls.bytes_inst_read::cpu00.inst       119232                       # Number of instructions bytes read from this memory
system.mem_ctrls.bytes_inst_read::cpu01.inst        12544                       # Number of instructions bytes read from this memory
system.mem_ctrls.bytes_inst_read::cpu02.inst         1984                       # Number of instructions bytes read from this memory
system.mem_ctrls.bytes_inst_read::cpu03.inst          640                       # Number of instructions bytes read from this memory
system.mem_ctrls.bytes_inst_read::cpu04.inst          256                       # Number of instructions bytes read from this memory
system.mem_ctrls.bytes_inst_read::cpu05.inst          256                       # Number of instructions bytes read from this memory
system.mem_ctrls.bytes_inst_read::cpu06.inst         2752                       # Number of instructions bytes read from this memory
system.mem_ctrls.bytes_inst_read::cpu07.inst          704                       # Number of instructions bytes read from this memory
system.mem_ctrls.bytes_inst_read::cpu08.inst          640                       # Number of instructions bytes read from this memory
system.mem_ctrls.bytes_inst_read::cpu09.inst          384                       # Number of instructions bytes read from this memory
system.mem_ctrls.bytes_inst_read::cpu10.inst          512                       # Number of instructions bytes read from this memory
system.mem_ctrls.bytes_inst_read::cpu11.inst          768                       # Number of instructions bytes read from this memory
system.mem_ctrls.bytes_inst_read::cpu12.inst         1536                       # Number of instructions bytes read from this memory
system.mem_ctrls.bytes_inst_read::cpu13.inst         4416                       # Number of instructions bytes read from this memory
system.mem_ctrls.bytes_inst_read::cpu14.inst          320                       # Number of instructions bytes read from this memory
system.mem_ctrls.bytes_inst_read::cpu15.inst         1024                       # Number of instructions bytes read from this memory
system.mem_ctrls.bytes_inst_read::total        147968                       # Number of instructions bytes read from this memory
system.mem_ctrls.num_reads::cpu00.inst           1863                       # Number of read requests responded to by this memory
system.mem_ctrls.num_reads::cpu00.data           5885                       # Number of read requests responded to by this memory
system.mem_ctrls.num_reads::cpu01.inst            196                       # Number of read requests responded to by this memory
system.mem_ctrls.num_reads::cpu01.data             93                       # Number of read requests responded to by this memory
system.mem_ctrls.num_reads::cpu02.inst             31                       # Number of read requests responded to by this memory
system.mem_ctrls.num_reads::cpu02.data             88                       # Number of read requests responded to by this memory
system.mem_ctrls.num_reads::cpu03.inst             10                       # Number of read requests responded to by this memory
system.mem_ctrls.num_reads::cpu03.data             88                       # Number of read requests responded to by this memory
system.mem_ctrls.num_reads::cpu04.inst              4                       # Number of read requests responded to by this memory
system.mem_ctrls.num_reads::cpu04.data             69                       # Number of read requests responded to by this memory
system.mem_ctrls.num_reads::cpu05.inst              4                       # Number of read requests responded to by this memory
system.mem_ctrls.num_reads::cpu05.data             68                       # Number of read requests responded to by this memory
system.mem_ctrls.num_reads::cpu06.inst             43                       # Number of read requests responded to by this memory
system.mem_ctrls.num_reads::cpu06.data             79                       # Number of read requests responded to by this memory
system.mem_ctrls.num_reads::cpu07.inst             11                       # Number of read requests responded to by this memory
system.mem_ctrls.num_reads::cpu07.data             88                       # Number of read requests responded to by this memory
system.mem_ctrls.num_reads::cpu08.inst             10                       # Number of read requests responded to by this memory
system.mem_ctrls.num_reads::cpu08.data             85                       # Number of read requests responded to by this memory
system.mem_ctrls.num_reads::cpu09.inst              6                       # Number of read requests responded to by this memory
system.mem_ctrls.num_reads::cpu09.data             77                       # Number of read requests responded to by this memory
system.mem_ctrls.num_reads::cpu10.inst              8                       # Number of read requests responded to by this memory
system.mem_ctrls.num_reads::cpu10.data             76                       # Number of read requests responded to by this memory
system.mem_ctrls.num_reads::cpu11.inst             12                       # Number of read requests responded to by this memory
system.mem_ctrls.num_reads::cpu11.data             72                       # Number of read requests responded to by this memory
system.mem_ctrls.num_reads::cpu12.inst             24                       # Number of read requests responded to by this memory
system.mem_ctrls.num_reads::cpu12.data             88                       # Number of read requests responded to by this memory
system.mem_ctrls.num_reads::cpu13.inst             69                       # Number of read requests responded to by this memory
system.mem_ctrls.num_reads::cpu13.data             87                       # Number of read requests responded to by this memory
system.mem_ctrls.num_reads::cpu14.inst              5                       # Number of read requests responded to by this memory
system.mem_ctrls.num_reads::cpu14.data             69                       # Number of read requests responded to by this memory
system.mem_ctrls.num_reads::cpu15.inst             16                       # Number of read requests responded to by this memory
system.mem_ctrls.num_reads::cpu15.data             84                       # Number of read requests responded to by this memory
system.mem_ctrls.num_reads::total                9408                       # Number of read requests responded to by this memory
system.mem_ctrls.bw_read::cpu00.inst         91897342                       # Total read bandwidth from this memory (bytes/s)
system.mem_ctrls.bw_read::cpu00.data        290292998                       # Total read bandwidth from this memory (bytes/s)
system.mem_ctrls.bw_read::cpu01.inst          9668212                       # Total read bandwidth from this memory (bytes/s)
system.mem_ctrls.bw_read::cpu01.data          4587468                       # Total read bandwidth from this memory (bytes/s)
system.mem_ctrls.bw_read::cpu02.inst          1529156                       # Total read bandwidth from this memory (bytes/s)
system.mem_ctrls.bw_read::cpu02.data          4340830                       # Total read bandwidth from this memory (bytes/s)
system.mem_ctrls.bw_read::cpu03.inst           493276                       # Total read bandwidth from this memory (bytes/s)
system.mem_ctrls.bw_read::cpu03.data          4340830                       # Total read bandwidth from this memory (bytes/s)
system.mem_ctrls.bw_read::cpu04.inst           197310                       # Total read bandwidth from this memory (bytes/s)
system.mem_ctrls.bw_read::cpu04.data          3403605                       # Total read bandwidth from this memory (bytes/s)
system.mem_ctrls.bw_read::cpu05.inst           197310                       # Total read bandwidth from this memory (bytes/s)
system.mem_ctrls.bw_read::cpu05.data          3354278                       # Total read bandwidth from this memory (bytes/s)
system.mem_ctrls.bw_read::cpu06.inst          2121087                       # Total read bandwidth from this memory (bytes/s)
system.mem_ctrls.bw_read::cpu06.data          3896881                       # Total read bandwidth from this memory (bytes/s)
system.mem_ctrls.bw_read::cpu07.inst           542604                       # Total read bandwidth from this memory (bytes/s)
system.mem_ctrls.bw_read::cpu07.data          4340830                       # Total read bandwidth from this memory (bytes/s)
system.mem_ctrls.bw_read::cpu08.inst           493276                       # Total read bandwidth from this memory (bytes/s)
system.mem_ctrls.bw_read::cpu08.data          4192847                       # Total read bandwidth from this memory (bytes/s)
system.mem_ctrls.bw_read::cpu09.inst           295966                       # Total read bandwidth from this memory (bytes/s)
system.mem_ctrls.bw_read::cpu09.data          3798226                       # Total read bandwidth from this memory (bytes/s)
system.mem_ctrls.bw_read::cpu10.inst           394621                       # Total read bandwidth from this memory (bytes/s)
system.mem_ctrls.bw_read::cpu10.data          3748899                       # Total read bandwidth from this memory (bytes/s)
system.mem_ctrls.bw_read::cpu11.inst           591931                       # Total read bandwidth from this memory (bytes/s)
system.mem_ctrls.bw_read::cpu11.data          3551588                       # Total read bandwidth from this memory (bytes/s)
system.mem_ctrls.bw_read::cpu12.inst          1183863                       # Total read bandwidth from this memory (bytes/s)
system.mem_ctrls.bw_read::cpu12.data          4340830                       # Total read bandwidth from this memory (bytes/s)
system.mem_ctrls.bw_read::cpu13.inst          3403605                       # Total read bandwidth from this memory (bytes/s)
system.mem_ctrls.bw_read::cpu13.data          4291502                       # Total read bandwidth from this memory (bytes/s)
system.mem_ctrls.bw_read::cpu14.inst           246638                       # Total read bandwidth from this memory (bytes/s)
system.mem_ctrls.bw_read::cpu14.data          3403605                       # Total read bandwidth from this memory (bytes/s)
system.mem_ctrls.bw_read::cpu15.inst           789242                       # Total read bandwidth from this memory (bytes/s)
system.mem_ctrls.bw_read::cpu15.data          4143519                       # Total read bandwidth from this memory (bytes/s)
system.mem_ctrls.bw_read::total             464074176                       # Total read bandwidth from this memory (bytes/s)
system.mem_ctrls.bw_inst_read::cpu00.inst     91897342                       # Instruction read bandwidth from this memory (bytes/s)
system.mem_ctrls.bw_inst_read::cpu01.inst      9668212                       # Instruction read bandwidth from this memory (bytes/s)
system.mem_ctrls.bw_inst_read::cpu02.inst      1529156                       # Instruction read bandwidth from this memory (bytes/s)
system.mem_ctrls.bw_inst_read::cpu03.inst       493276                       # Instruction read bandwidth from this memory (bytes/s)
system.mem_ctrls.bw_inst_read::cpu04.inst       197310                       # Instruction read bandwidth from this memory (bytes/s)
system.mem_ctrls.bw_inst_read::cpu05.inst       197310                       # Instruction read bandwidth from this memory (bytes/s)
system.mem_ctrls.bw_inst_read::cpu06.inst      2121087                       # Instruction read bandwidth from this memory (bytes/s)
system.mem_ctrls.bw_inst_read::cpu07.inst       542604                       # Instruction read bandwidth from this memory (bytes/s)
system.mem_ctrls.bw_inst_read::cpu08.inst       493276                       # Instruction read bandwidth from this memory (bytes/s)
system.mem_ctrls.bw_inst_read::cpu09.inst       295966                       # Instruction read bandwidth from this memory (bytes/s)
system.mem_ctrls.bw_inst_read::cpu10.inst       394621                       # Instruction read bandwidth from this memory (bytes/s)
system.mem_ctrls.bw_inst_read::cpu11.inst       591931                       # Instruction read bandwidth from this memory (bytes/s)
system.mem_ctrls.bw_inst_read::cpu12.inst      1183863                       # Instruction read bandwidth from this memory (bytes/s)
system.mem_ctrls.bw_inst_read::cpu13.inst      3403605                       # Instruction read bandwidth from this memory (bytes/s)
system.mem_ctrls.bw_inst_read::cpu14.inst       246638                       # Instruction read bandwidth from this memory (bytes/s)
system.mem_ctrls.bw_inst_read::cpu15.inst       789242                       # Instruction read bandwidth from this memory (bytes/s)
system.mem_ctrls.bw_inst_read::total        114045439                       # Instruction read bandwidth from this memory (bytes/s)
system.mem_ctrls.bw_total::cpu00.inst        91897342                       # Total bandwidth to/from this memory (bytes/s)
system.mem_ctrls.bw_total::cpu00.data       290292998                       # Total bandwidth to/from this memory (bytes/s)
system.mem_ctrls.bw_total::cpu01.inst         9668212                       # Total bandwidth to/from this memory (bytes/s)
system.mem_ctrls.bw_total::cpu01.data         4587468                       # Total bandwidth to/from this memory (bytes/s)
system.mem_ctrls.bw_total::cpu02.inst         1529156                       # Total bandwidth to/from this memory (bytes/s)
system.mem_ctrls.bw_total::cpu02.data         4340830                       # Total bandwidth to/from this memory (bytes/s)
system.mem_ctrls.bw_total::cpu03.inst          493276                       # Total bandwidth to/from this memory (bytes/s)
system.mem_ctrls.bw_total::cpu03.data         4340830                       # Total bandwidth to/from this memory (bytes/s)
system.mem_ctrls.bw_total::cpu04.inst          197310                       # Total bandwidth to/from this memory (bytes/s)
system.mem_ctrls.bw_total::cpu04.data         3403605                       # Total bandwidth to/from this memory (bytes/s)
system.mem_ctrls.bw_total::cpu05.inst          197310                       # Total bandwidth to/from this memory (bytes/s)
system.mem_ctrls.bw_total::cpu05.data         3354278                       # Total bandwidth to/from this memory (bytes/s)
system.mem_ctrls.bw_total::cpu06.inst         2121087                       # Total bandwidth to/from this memory (bytes/s)
system.mem_ctrls.bw_total::cpu06.data         3896881                       # Total bandwidth to/from this memory (bytes/s)
system.mem_ctrls.bw_total::cpu07.inst          542604                       # Total bandwidth to/from this memory (bytes/s)
system.mem_ctrls.bw_total::cpu07.data         4340830                       # Total bandwidth to/from this memory (bytes/s)
system.mem_ctrls.bw_total::cpu08.inst          493276                       # Total bandwidth to/from this memory (bytes/s)
system.mem_ctrls.bw_total::cpu08.data         4192847                       # Total bandwidth to/from this memory (bytes/s)
system.mem_ctrls.bw_total::cpu09.inst          295966                       # Total bandwidth to/from this memory (bytes/s)
system.mem_ctrls.bw_total::cpu09.data         3798226                       # Total bandwidth to/from this memory (bytes/s)
system.mem_ctrls.bw_total::cpu10.inst          394621                       # Total bandwidth to/from this memory (bytes/s)
system.mem_ctrls.bw_total::cpu10.data         3748899                       # Total bandwidth to/from this memory (bytes/s)
system.mem_ctrls.bw_total::cpu11.inst          591931                       # Total bandwidth to/from this memory (bytes/s)
system.mem_ctrls.bw_total::cpu11.data         3551588                       # Total bandwidth to/from this memory (bytes/s)
system.mem_ctrls.bw_total::cpu12.inst         1183863                       # Total bandwidth to/from this memory (bytes/s)
system.mem_ctrls.bw_total::cpu12.data         4340830                       # Total bandwidth to/from this memory (bytes/s)
system.mem_ctrls.bw_total::cpu13.inst         3403605                       # Total bandwidth to/from this memory (bytes/s)
system.mem_ctrls.bw_total::cpu13.data         4291502                       # Total bandwidth to/from this memory (bytes/s)
system.mem_ctrls.bw_total::cpu14.inst          246638                       # Total bandwidth to/from this memory (bytes/s)
system.mem_ctrls.bw_total::cpu14.data         3403605                       # Total bandwidth to/from this memory (bytes/s)
system.mem_ctrls.bw_total::cpu15.inst          789242                       # Total bandwidth to/from this memory (bytes/s)
system.mem_ctrls.bw_total::cpu15.data         4143519                       # Total bandwidth to/from this memory (bytes/s)
system.mem_ctrls.bw_total::total            464074176                       # Total bandwidth to/from this memory (bytes/s)
system.cpu00.branchPred.lookups                132349                       # Number of BP lookups
system.cpu00.branchPred.condPredicted           73752                       # Number of conditional branches predicted
system.cpu00.branchPred.condIncorrect            5647                       # Number of conditional branches incorrect
system.cpu00.branchPred.BTBLookups              86724                       # Number of BTB lookups
system.cpu00.branchPred.BTBHits                 66286                       # Number of BTB hits
system.cpu00.branchPred.BTBCorrect                  0                       # Number of correct BTB predictions (this stat may not work properly.
system.cpu00.branchPred.BTBHitPct           76.433283                       # BTB Hit Percentage
system.cpu00.branchPred.usedRAS                 26420                       # Number of times the RAS was used to get a target.
system.cpu00.branchPred.RASInCorrect               85                       # Number of incorrect RAS predictions.
system.cpu00.branchPred.indirectLookups          3640                       # Number of indirect predictor lookups.
system.cpu00.branchPred.indirectHits             2883                       # Number of indirect target hits.
system.cpu00.branchPred.indirectMisses            757                       # Number of indirect misses.
system.cpu00.branchPredindirectMispredicted          251                       # Number of mispredicted indirect branches.
system.cpu_voltage_domain.voltage                   1                       # Voltage in Volts
system.cpu_clk_domain.clock                      1180                       # Clock period in ticks
system.cpu00.dtb.fetch_hits                         0                       # ITB hits
system.cpu00.dtb.fetch_misses                       0                       # ITB misses
system.cpu00.dtb.fetch_acv                          0                       # ITB acv
system.cpu00.dtb.fetch_accesses                     0                       # ITB accesses
system.cpu00.dtb.read_hits                     180236                       # DTB read hits
system.cpu00.dtb.read_misses                      623                       # DTB read misses
system.cpu00.dtb.read_acv                           0                       # DTB read access violations
system.cpu00.dtb.read_accesses                 180859                       # DTB read accesses
system.cpu00.dtb.write_hits                    128042                       # DTB write hits
system.cpu00.dtb.write_misses                    1120                       # DTB write misses
system.cpu00.dtb.write_acv                          0                       # DTB write access violations
system.cpu00.dtb.write_accesses                129162                       # DTB write accesses
system.cpu00.dtb.data_hits                     308278                       # DTB hits
system.cpu00.dtb.data_misses                     1743                       # DTB misses
system.cpu00.dtb.data_acv                           0                       # DTB access violations
system.cpu00.dtb.data_accesses                 310021                       # DTB accesses
system.cpu00.itb.fetch_hits                    148949                       # ITB hits
system.cpu00.itb.fetch_misses                     157                       # ITB misses
system.cpu00.itb.fetch_acv                          0                       # ITB acv
system.cpu00.itb.fetch_accesses                149106                       # ITB accesses
system.cpu00.itb.read_hits                          0                       # DTB read hits
system.cpu00.itb.read_misses                        0                       # DTB read misses
system.cpu00.itb.read_acv                           0                       # DTB read access violations
system.cpu00.itb.read_accesses                      0                       # DTB read accesses
system.cpu00.itb.write_hits                         0                       # DTB write hits
system.cpu00.itb.write_misses                       0                       # DTB write misses
system.cpu00.itb.write_acv                          0                       # DTB write access violations
system.cpu00.itb.write_accesses                     0                       # DTB write accesses
system.cpu00.itb.data_hits                          0                       # DTB hits
system.cpu00.itb.data_misses                        0                       # DTB misses
system.cpu00.itb.data_acv                           0                       # DTB access violations
system.cpu00.itb.data_accesses                      0                       # DTB accesses
system.cpu00.workload.num_syscalls               2249                       # Number of system calls
system.cpu00.numCycles                        1016276                       # number of cpu cycles simulated
system.cpu00.numWorkItemsStarted                    0                       # number of work items this cpu started
system.cpu00.numWorkItemsCompleted                  0                       # number of work items this cpu completed
system.cpu00.fetch.icacheStallCycles            86380                       # Number of cycles fetch is stalled on an Icache miss
system.cpu00.fetch.Insts                      1188298                       # Number of instructions fetch has processed
system.cpu00.fetch.Branches                    132349                       # Number of branches that fetch encountered
system.cpu00.fetch.predictedBranches            95589                       # Number of branches that fetch has predicted taken
system.cpu00.fetch.Cycles                      717985                       # Number of cycles fetch has run and was not squashing or blocked
system.cpu00.fetch.SquashCycles                 12664                       # Number of cycles fetch has spent squashing
system.cpu00.fetch.MiscStallCycles                420                       # Number of cycles fetch has spent waiting on interrupts, or bad addresses, or out of MSHRs
system.cpu00.fetch.PendingTrapStallCycles         6330                       # Number of stall cycles due to pending traps
system.cpu00.fetch.IcacheWaitRetryStallCycles          549                       # Number of stall cycles due to full MSHR
system.cpu00.fetch.CacheLines                  148949                       # Number of cache lines fetched
system.cpu00.fetch.IcacheSquashes                2659                       # Number of outstanding Icache misses that were squashed
system.cpu00.fetch.rateDist::samples           817996                       # Number of instructions fetched each cycle (Total)
system.cpu00.fetch.rateDist::mean            1.452694                       # Number of instructions fetched each cycle (Total)
system.cpu00.fetch.rateDist::stdev           2.721047                       # Number of instructions fetched each cycle (Total)
system.cpu00.fetch.rateDist::underflows             0      0.00%      0.00% # Number of instructions fetched each cycle (Total)
system.cpu00.fetch.rateDist::0                 600587     73.42%     73.42% # Number of instructions fetched each cycle (Total)
system.cpu00.fetch.rateDist::1                  16365      2.00%     75.42% # Number of instructions fetched each cycle (Total)
system.cpu00.fetch.rateDist::2                  17338      2.12%     77.54% # Number of instructions fetched each cycle (Total)
system.cpu00.fetch.rateDist::3                  16923      2.07%     79.61% # Number of instructions fetched each cycle (Total)
system.cpu00.fetch.rateDist::4                  37921      4.64%     84.25% # Number of instructions fetched each cycle (Total)
system.cpu00.fetch.rateDist::5                  15786      1.93%     86.18% # Number of instructions fetched each cycle (Total)
system.cpu00.fetch.rateDist::6                  18742      2.29%     88.47% # Number of instructions fetched each cycle (Total)
system.cpu00.fetch.rateDist::7                  11250      1.38%     89.84% # Number of instructions fetched each cycle (Total)
system.cpu00.fetch.rateDist::8                  83084     10.16%    100.00% # Number of instructions fetched each cycle (Total)
system.cpu00.fetch.rateDist::overflows              0      0.00%    100.00% # Number of instructions fetched each cycle (Total)
system.cpu00.fetch.rateDist::min_value              0                       # Number of instructions fetched each cycle (Total)
system.cpu00.fetch.rateDist::max_value              8                       # Number of instructions fetched each cycle (Total)
system.cpu00.fetch.rateDist::total             817996                       # Number of instructions fetched each cycle (Total)
system.cpu00.fetch.branchRate                0.130229                       # Number of branch fetches per cycle
system.cpu00.fetch.rate                      1.169267                       # Number of inst fetches per cycle
system.cpu00.decode.IdleCycles                  92393                       # Number of cycles decode is idle
system.cpu00.decode.BlockedCycles              558094                       # Number of cycles decode is blocked
system.cpu00.decode.RunCycles                  129798                       # Number of cycles decode is running
system.cpu00.decode.UnblockCycles               33107                       # Number of cycles decode is unblocking
system.cpu00.decode.SquashCycles                 4604                       # Number of cycles decode is squashing
system.cpu00.decode.BranchResolved              26445                       # Number of times decode resolved a branch
system.cpu00.decode.BranchMispred                1760                       # Number of times decode detected a branch misprediction
system.cpu00.decode.DecodedInsts              1124420                       # Number of instructions handled by decode
system.cpu00.decode.SquashedInsts                7303                       # Number of squashed instructions handled by decode
system.cpu00.rename.SquashCycles                 4604                       # Number of cycles rename is squashing
system.cpu00.rename.IdleCycles                 108189                       # Number of cycles rename is idle
system.cpu00.rename.BlockCycles                 93798                       # Number of cycles rename is blocking
system.cpu00.rename.serializeStallCycles       218831                       # count of cycles rename stalled for serializing inst
system.cpu00.rename.RunCycles                  147289                       # Number of cycles rename is running
system.cpu00.rename.UnblockCycles              245285                       # Number of cycles rename is unblocking
system.cpu00.rename.RenamedInsts              1105310                       # Number of instructions processed by rename
system.cpu00.rename.ROBFullEvents                2750                       # Number of times rename has blocked due to ROB full
system.cpu00.rename.IQFullEvents                22094                       # Number of times rename has blocked due to IQ full
system.cpu00.rename.LQFullEvents                 2131                       # Number of times rename has blocked due to LQ full
system.cpu00.rename.SQFullEvents               210667                       # Number of times rename has blocked due to SQ full
system.cpu00.rename.RenamedOperands            757731                       # Number of destination operands rename has renamed
system.cpu00.rename.RenameLookups             1368789                       # Number of register rename lookups that rename has made
system.cpu00.rename.int_rename_lookups        1210678                       # Number of integer rename lookups
system.cpu00.rename.fp_rename_lookups          155824                       # Number of floating rename lookups
system.cpu00.rename.CommittedMaps              668956                       # Number of HB maps that are committed
system.cpu00.rename.UndoneMaps                  88775                       # Number of HB maps that are undone due to squashing
system.cpu00.rename.serializingInsts             4025                       # count of serializing insts renamed
system.cpu00.rename.tempSerializingInsts         1661                       # count of temporary serializing insts renamed
system.cpu00.rename.skidInsts                  148246                       # count of insts added to the skid buffer
system.cpu00.memDep0.insertedLoads             179355                       # Number of loads inserted to the mem dependence unit.
system.cpu00.memDep0.insertedStores            135398                       # Number of stores inserted to the mem dependence unit.
system.cpu00.memDep0.conflictingLoads           32057                       # Number of conflicting loads.
system.cpu00.memDep0.conflictingStores          12286                       # Number of conflicting stores.
system.cpu00.iq.iqInstsAdded                   968839                       # Number of instructions added to the IQ (excludes non-spec)
system.cpu00.iq.iqNonSpecInstsAdded              2742                       # Number of non-speculative instructions added to the IQ
system.cpu00.iq.iqInstsIssued                  952196                       # Number of instructions issued
system.cpu00.iq.iqSquashedInstsIssued            1575                       # Number of squashed instructions issued
system.cpu00.iq.iqSquashedInstsExamined        101521                       # Number of squashed instructions iterated over during squash; mainly for profiling
system.cpu00.iq.iqSquashedOperandsExamined        50120                       # Number of squashed operands that are examined and possibly removed from graph
system.cpu00.iq.iqSquashedNonSpecRemoved          366                       # Number of squashed non-spec instructions that were removed
system.cpu00.iq.issued_per_cycle::samples       817996                       # Number of insts issued each cycle
system.cpu00.iq.issued_per_cycle::mean       1.164059                       # Number of insts issued each cycle
system.cpu00.iq.issued_per_cycle::stdev      1.934918                       # Number of insts issued each cycle
system.cpu00.iq.issued_per_cycle::underflows            0      0.00%      0.00% # Number of insts issued each cycle
system.cpu00.iq.issued_per_cycle::0            520292     63.61%     63.61% # Number of insts issued each cycle
system.cpu00.iq.issued_per_cycle::1             73555      8.99%     72.60% # Number of insts issued each cycle
system.cpu00.iq.issued_per_cycle::2             60779      7.43%     80.03% # Number of insts issued each cycle
system.cpu00.iq.issued_per_cycle::3             45106      5.51%     85.54% # Number of insts issued each cycle
system.cpu00.iq.issued_per_cycle::4             43257      5.29%     90.83% # Number of insts issued each cycle
system.cpu00.iq.issued_per_cycle::5             28620      3.50%     94.33% # Number of insts issued each cycle
system.cpu00.iq.issued_per_cycle::6             26895      3.29%     97.62% # Number of insts issued each cycle
system.cpu00.iq.issued_per_cycle::7             11669      1.43%     99.04% # Number of insts issued each cycle
system.cpu00.iq.issued_per_cycle::8              7823      0.96%    100.00% # Number of insts issued each cycle
system.cpu00.iq.issued_per_cycle::overflows            0      0.00%    100.00% # Number of insts issued each cycle
system.cpu00.iq.issued_per_cycle::min_value            0                       # Number of insts issued each cycle
system.cpu00.iq.issued_per_cycle::max_value            8                       # Number of insts issued each cycle
system.cpu00.iq.issued_per_cycle::total        817996                       # Number of insts issued each cycle
system.cpu00.iq.fu_full::No_OpClass                 0      0.00%      0.00% # attempts to use FU when none available
system.cpu00.iq.fu_full::IntAlu                  4943     16.11%     16.11% # attempts to use FU when none available
system.cpu00.iq.fu_full::IntMult                 4097     13.35%     29.47% # attempts to use FU when none available
system.cpu00.iq.fu_full::IntDiv                     0      0.00%     29.47% # attempts to use FU when none available
system.cpu00.iq.fu_full::FloatAdd                  63      0.21%     29.67% # attempts to use FU when none available
system.cpu00.iq.fu_full::FloatCmp                   0      0.00%     29.67% # attempts to use FU when none available
system.cpu00.iq.fu_full::FloatCvt                   0      0.00%     29.67% # attempts to use FU when none available
system.cpu00.iq.fu_full::FloatMult               5927     19.32%     48.99% # attempts to use FU when none available
system.cpu00.iq.fu_full::FloatDiv                   0      0.00%     48.99% # attempts to use FU when none available
system.cpu00.iq.fu_full::FloatSqrt                  0      0.00%     48.99% # attempts to use FU when none available
system.cpu00.iq.fu_full::SimdAdd                    0      0.00%     48.99% # attempts to use FU when none available
system.cpu00.iq.fu_full::SimdAddAcc                 0      0.00%     48.99% # attempts to use FU when none available
system.cpu00.iq.fu_full::SimdAlu                    0      0.00%     48.99% # attempts to use FU when none available
system.cpu00.iq.fu_full::SimdCmp                    0      0.00%     48.99% # attempts to use FU when none available
system.cpu00.iq.fu_full::SimdCvt                    0      0.00%     48.99% # attempts to use FU when none available
system.cpu00.iq.fu_full::SimdMisc                   0      0.00%     48.99% # attempts to use FU when none available
system.cpu00.iq.fu_full::SimdMult                   0      0.00%     48.99% # attempts to use FU when none available
system.cpu00.iq.fu_full::SimdMultAcc                0      0.00%     48.99% # attempts to use FU when none available
system.cpu00.iq.fu_full::SimdShift                  0      0.00%     48.99% # attempts to use FU when none available
system.cpu00.iq.fu_full::SimdShiftAcc               0      0.00%     48.99% # attempts to use FU when none available
system.cpu00.iq.fu_full::SimdSqrt                   0      0.00%     48.99% # attempts to use FU when none available
system.cpu00.iq.fu_full::SimdFloatAdd               0      0.00%     48.99% # attempts to use FU when none available
system.cpu00.iq.fu_full::SimdFloatAlu               0      0.00%     48.99% # attempts to use FU when none available
system.cpu00.iq.fu_full::SimdFloatCmp               0      0.00%     48.99% # attempts to use FU when none available
system.cpu00.iq.fu_full::SimdFloatCvt               0      0.00%     48.99% # attempts to use FU when none available
system.cpu00.iq.fu_full::SimdFloatDiv               0      0.00%     48.99% # attempts to use FU when none available
system.cpu00.iq.fu_full::SimdFloatMisc              0      0.00%     48.99% # attempts to use FU when none available
system.cpu00.iq.fu_full::SimdFloatMult              0      0.00%     48.99% # attempts to use FU when none available
system.cpu00.iq.fu_full::SimdFloatMultAcc            0      0.00%     48.99% # attempts to use FU when none available
system.cpu00.iq.fu_full::SimdFloatSqrt              0      0.00%     48.99% # attempts to use FU when none available
system.cpu00.iq.fu_full::MemRead                 9497     30.96%     79.95% # attempts to use FU when none available
system.cpu00.iq.fu_full::MemWrite                6152     20.05%    100.00% # attempts to use FU when none available
system.cpu00.iq.fu_full::IprAccess                  0      0.00%    100.00% # attempts to use FU when none available
system.cpu00.iq.fu_full::InstPrefetch               0      0.00%    100.00% # attempts to use FU when none available
system.cpu00.iq.FU_type_0::No_OpClass               0      0.00%      0.00% # Type of FU issued
system.cpu00.iq.FU_type_0::IntAlu              551853     57.96%     57.96% # Type of FU issued
system.cpu00.iq.FU_type_0::IntMult              12788      1.34%     59.30% # Type of FU issued
system.cpu00.iq.FU_type_0::IntDiv                   0      0.00%     59.30% # Type of FU issued
system.cpu00.iq.FU_type_0::FloatAdd             35721      3.75%     63.05% # Type of FU issued
system.cpu00.iq.FU_type_0::FloatCmp                 8      0.00%     63.05% # Type of FU issued
system.cpu00.iq.FU_type_0::FloatCvt                 0      0.00%     63.05% # Type of FU issued
system.cpu00.iq.FU_type_0::FloatMult            37110      3.90%     66.95% # Type of FU issued
system.cpu00.iq.FU_type_0::FloatDiv                16      0.00%     66.95% # Type of FU issued
system.cpu00.iq.FU_type_0::FloatSqrt                0      0.00%     66.95% # Type of FU issued
system.cpu00.iq.FU_type_0::SimdAdd                  0      0.00%     66.95% # Type of FU issued
system.cpu00.iq.FU_type_0::SimdAddAcc               0      0.00%     66.95% # Type of FU issued
system.cpu00.iq.FU_type_0::SimdAlu                  0      0.00%     66.95% # Type of FU issued
system.cpu00.iq.FU_type_0::SimdCmp                  0      0.00%     66.95% # Type of FU issued
system.cpu00.iq.FU_type_0::SimdCvt                  0      0.00%     66.95% # Type of FU issued
system.cpu00.iq.FU_type_0::SimdMisc                 0      0.00%     66.95% # Type of FU issued
system.cpu00.iq.FU_type_0::SimdMult                 0      0.00%     66.95% # Type of FU issued
system.cpu00.iq.FU_type_0::SimdMultAcc              0      0.00%     66.95% # Type of FU issued
system.cpu00.iq.FU_type_0::SimdShift                0      0.00%     66.95% # Type of FU issued
system.cpu00.iq.FU_type_0::SimdShiftAcc             0      0.00%     66.95% # Type of FU issued
system.cpu00.iq.FU_type_0::SimdSqrt                 0      0.00%     66.95% # Type of FU issued
system.cpu00.iq.FU_type_0::SimdFloatAdd             0      0.00%     66.95% # Type of FU issued
system.cpu00.iq.FU_type_0::SimdFloatAlu             0      0.00%     66.95% # Type of FU issued
system.cpu00.iq.FU_type_0::SimdFloatCmp             0      0.00%     66.95% # Type of FU issued
system.cpu00.iq.FU_type_0::SimdFloatCvt             0      0.00%     66.95% # Type of FU issued
system.cpu00.iq.FU_type_0::SimdFloatDiv             0      0.00%     66.95% # Type of FU issued
system.cpu00.iq.FU_type_0::SimdFloatMisc            0      0.00%     66.95% # Type of FU issued
system.cpu00.iq.FU_type_0::SimdFloatMult            0      0.00%     66.95% # Type of FU issued
system.cpu00.iq.FU_type_0::SimdFloatMultAcc            0      0.00%     66.95% # Type of FU issued
system.cpu00.iq.FU_type_0::SimdFloatSqrt            0      0.00%     66.95% # Type of FU issued
system.cpu00.iq.FU_type_0::MemRead             184043     19.33%     86.28% # Type of FU issued
system.cpu00.iq.FU_type_0::MemWrite            130657     13.72%    100.00% # Type of FU issued
system.cpu00.iq.FU_type_0::IprAccess                0      0.00%    100.00% # Type of FU issued
system.cpu00.iq.FU_type_0::InstPrefetch             0      0.00%    100.00% # Type of FU issued
system.cpu00.iq.FU_type_0::total               952196                       # Type of FU issued
system.cpu00.iq.rate                         0.936946                       # Inst issue rate
system.cpu00.iq.fu_busy_cnt                     30679                       # FU busy when requested
system.cpu00.iq.fu_busy_rate                 0.032219                       # FU busy rate (busy events/executed inst)
system.cpu00.iq.int_inst_queue_reads          2511378                       # Number of integer instruction queue reads
system.cpu00.iq.int_inst_queue_writes          950172                       # Number of integer instruction queue writes
system.cpu00.iq.int_inst_queue_wakeup_accesses       814635                       # Number of integer instruction queue wakeup accesses
system.cpu00.iq.fp_inst_queue_reads            243264                       # Number of floating instruction queue reads
system.cpu00.iq.fp_inst_queue_writes           123348                       # Number of floating instruction queue writes
system.cpu00.iq.fp_inst_queue_wakeup_accesses       116974                       # Number of floating instruction queue wakeup accesses
system.cpu00.iq.int_alu_accesses               857905                       # Number of integer alu accesses
system.cpu00.iq.fp_alu_accesses                124970                       # Number of floating point alu accesses
system.cpu00.iew.lsq.thread0.forwLoads          21076                       # Number of loads that had data forwarded from stores
system.cpu00.iew.lsq.thread0.invAddrLoads            0                       # Number of loads ignored due to an invalid address
system.cpu00.iew.lsq.thread0.squashedLoads        18349                       # Number of loads squashed
system.cpu00.iew.lsq.thread0.ignoredResponses           68                       # Number of memory responses ignored because the instruction is squashed
system.cpu00.iew.lsq.thread0.memOrderViolation          428                       # Number of memory ordering violations
system.cpu00.iew.lsq.thread0.squashedStores        15871                       # Number of stores squashed
system.cpu00.iew.lsq.thread0.invAddrSwpfs            0                       # Number of software prefetches ignored due to an invalid address
system.cpu00.iew.lsq.thread0.blockedLoads            0                       # Number of blocked loads due to partial load-store forwarding
system.cpu00.iew.lsq.thread0.rescheduledLoads          208                       # Number of loads that were rescheduled
system.cpu00.iew.lsq.thread0.cacheBlocked         9130                       # Number of times an access to memory failed due to the cache being blocked
system.cpu00.iew.iewIdleCycles                      0                       # Number of cycles IEW is idle
system.cpu00.iew.iewSquashCycles                 4604                       # Number of cycles IEW is squashing
system.cpu00.iew.iewBlockCycles                 21871                       # Number of cycles IEW is blocking
system.cpu00.iew.iewUnblockCycles               64216                       # Number of cycles IEW is unblocking
system.cpu00.iew.iewDispatchedInsts           1079095                       # Number of instructions dispatched to IQ
system.cpu00.iew.iewDispSquashedInsts            1369                       # Number of squashed instructions skipped by dispatch
system.cpu00.iew.iewDispLoadInsts              179355                       # Number of dispatched load instructions
system.cpu00.iew.iewDispStoreInsts             135398                       # Number of dispatched store instructions
system.cpu00.iew.iewDispNonSpecInsts             1577                       # Number of dispatched non-speculative instructions
system.cpu00.iew.iewIQFullEvents                  100                       # Number of times the IQ has become full, causing a stall
system.cpu00.iew.iewLSQFullEvents               64018                       # Number of times the LSQ has become full, causing a stall
system.cpu00.iew.memOrderViolationEvents          428                       # Number of memory order violations
system.cpu00.iew.predictedTakenIncorrect         1577                       # Number of branches that were predicted taken incorrectly
system.cpu00.iew.predictedNotTakenIncorrect         3155                       # Number of branches that were predicted not taken incorrectly
system.cpu00.iew.branchMispredicts               4732                       # Number of branch mispredicts detected at execute
system.cpu00.iew.iewExecutedInsts              944710                       # Number of executed instructions
system.cpu00.iew.iewExecLoadInsts              180877                       # Number of load instructions executed
system.cpu00.iew.iewExecSquashedInsts            7486                       # Number of squashed instructions skipped in execute
system.cpu00.iew.exec_swp                           0                       # number of swp insts executed
system.cpu00.iew.exec_nop                      107514                       # number of nop insts executed
system.cpu00.iew.exec_refs                     310046                       # number of memory reference insts executed
system.cpu00.iew.exec_branches                 110536                       # Number of branches executed
system.cpu00.iew.exec_stores                   129169                       # Number of stores executed
system.cpu00.iew.exec_rate                   0.929580                       # Inst execution rate
system.cpu00.iew.wb_sent                       935245                       # cumulative count of insts sent to commit
system.cpu00.iew.wb_count                      931609                       # cumulative count of insts written-back
system.cpu00.iew.wb_producers                  546014                       # num instructions producing a value
system.cpu00.iew.wb_consumers                  777614                       # num instructions consuming a value
system.cpu00.iew.wb_rate                     0.916689                       # insts written-back per cycle
system.cpu00.iew.wb_fanout                   0.702166                       # average fanout of values written-back
system.cpu00.commit.commitSquashedInsts        105647                       # The number of squashed insts skipped by commit
system.cpu00.commit.commitNonSpecStalls          2376                       # The number of times commit has been forced to stall to communicate backwards
system.cpu00.commit.branchMispredicts            3919                       # The number of times a branch was mispredicted
system.cpu00.commit.committed_per_cycle::samples       801467                       # Number of insts commited each cycle
system.cpu00.commit.committed_per_cycle::mean     1.208684                       # Number of insts commited each cycle
system.cpu00.commit.committed_per_cycle::stdev     2.304128                       # Number of insts commited each cycle
system.cpu00.commit.committed_per_cycle::underflows            0      0.00%      0.00% # Number of insts commited each cycle
system.cpu00.commit.committed_per_cycle::0       552942     68.99%     68.99% # Number of insts commited each cycle
system.cpu00.commit.committed_per_cycle::1        51449      6.42%     75.41% # Number of insts commited each cycle
system.cpu00.commit.committed_per_cycle::2        51377      6.41%     81.82% # Number of insts commited each cycle
system.cpu00.commit.committed_per_cycle::3        30188      3.77%     85.59% # Number of insts commited each cycle
system.cpu00.commit.committed_per_cycle::4        35587      4.44%     90.03% # Number of insts commited each cycle
system.cpu00.commit.committed_per_cycle::5         8909      1.11%     91.14% # Number of insts commited each cycle
system.cpu00.commit.committed_per_cycle::6        13018      1.62%     92.76% # Number of insts commited each cycle
system.cpu00.commit.committed_per_cycle::7         5024      0.63%     93.39% # Number of insts commited each cycle
system.cpu00.commit.committed_per_cycle::8        52973      6.61%    100.00% # Number of insts commited each cycle
system.cpu00.commit.committed_per_cycle::overflows            0      0.00%    100.00% # Number of insts commited each cycle
system.cpu00.commit.committed_per_cycle::min_value            0                       # Number of insts commited each cycle
system.cpu00.commit.committed_per_cycle::max_value            8                       # Number of insts commited each cycle
system.cpu00.commit.committed_per_cycle::total       801467                       # Number of insts commited each cycle
system.cpu00.commit.committedInsts             968720                       # Number of instructions committed
system.cpu00.commit.committedOps               968720                       # Number of ops (including micro ops) committed
system.cpu00.commit.swp_count                       0                       # Number of s/w prefetches committed
system.cpu00.commit.refs                       280533                       # Number of memory references committed
system.cpu00.commit.loads                      161006                       # Number of loads committed
system.cpu00.commit.membars                      1038                       # Number of memory barriers committed
system.cpu00.commit.branches                   100158                       # Number of branches committed
system.cpu00.commit.fp_insts                   116058                       # Number of committed floating point instructions.
system.cpu00.commit.int_insts                  792187                       # Number of committed integer instructions.
system.cpu00.commit.function_calls              22221                       # Number of function calls committed.
system.cpu00.commit.op_class_0::No_OpClass        98661     10.18%     10.18% # Class of committed instruction
system.cpu00.commit.op_class_0::IntAlu         503361     51.96%     62.15% # Class of committed instruction
system.cpu00.commit.op_class_0::IntMult         12689      1.31%     63.46% # Class of committed instruction
system.cpu00.commit.op_class_0::IntDiv              0      0.00%     63.46% # Class of committed instruction
system.cpu00.commit.op_class_0::FloatAdd        35480      3.66%     67.12% # Class of committed instruction
system.cpu00.commit.op_class_0::FloatCmp            8      0.00%     67.12% # Class of committed instruction
system.cpu00.commit.op_class_0::FloatCvt            0      0.00%     67.12% # Class of committed instruction
system.cpu00.commit.op_class_0::FloatMult        36935      3.81%     70.93% # Class of committed instruction
system.cpu00.commit.op_class_0::FloatDiv           14      0.00%     70.93% # Class of committed instruction
system.cpu00.commit.op_class_0::FloatSqrt            0      0.00%     70.93% # Class of committed instruction
system.cpu00.commit.op_class_0::SimdAdd             0      0.00%     70.93% # Class of committed instruction
system.cpu00.commit.op_class_0::SimdAddAcc            0      0.00%     70.93% # Class of committed instruction
system.cpu00.commit.op_class_0::SimdAlu             0      0.00%     70.93% # Class of committed instruction
system.cpu00.commit.op_class_0::SimdCmp             0      0.00%     70.93% # Class of committed instruction
system.cpu00.commit.op_class_0::SimdCvt             0      0.00%     70.93% # Class of committed instruction
system.cpu00.commit.op_class_0::SimdMisc            0      0.00%     70.93% # Class of committed instruction
system.cpu00.commit.op_class_0::SimdMult            0      0.00%     70.93% # Class of committed instruction
system.cpu00.commit.op_class_0::SimdMultAcc            0      0.00%     70.93% # Class of committed instruction
system.cpu00.commit.op_class_0::SimdShift            0      0.00%     70.93% # Class of committed instruction
system.cpu00.commit.op_class_0::SimdShiftAcc            0      0.00%     70.93% # Class of committed instruction
system.cpu00.commit.op_class_0::SimdSqrt            0      0.00%     70.93% # Class of committed instruction
system.cpu00.commit.op_class_0::SimdFloatAdd            0      0.00%     70.93% # Class of committed instruction
system.cpu00.commit.op_class_0::SimdFloatAlu            0      0.00%     70.93% # Class of committed instruction
system.cpu00.commit.op_class_0::SimdFloatCmp            0      0.00%     70.93% # Class of committed instruction
system.cpu00.commit.op_class_0::SimdFloatCvt            0      0.00%     70.93% # Class of committed instruction
system.cpu00.commit.op_class_0::SimdFloatDiv            0      0.00%     70.93% # Class of committed instruction
system.cpu00.commit.op_class_0::SimdFloatMisc            0      0.00%     70.93% # Class of committed instruction
system.cpu00.commit.op_class_0::SimdFloatMult            0      0.00%     70.93% # Class of committed instruction
system.cpu00.commit.op_class_0::SimdFloatMultAcc            0      0.00%     70.93% # Class of committed instruction
system.cpu00.commit.op_class_0::SimdFloatSqrt            0      0.00%     70.93% # Class of committed instruction
system.cpu00.commit.op_class_0::MemRead        162044     16.73%     87.66% # Class of committed instruction
system.cpu00.commit.op_class_0::MemWrite       119528     12.34%    100.00% # Class of committed instruction
system.cpu00.commit.op_class_0::IprAccess            0      0.00%    100.00% # Class of committed instruction
system.cpu00.commit.op_class_0::InstPrefetch            0      0.00%    100.00% # Class of committed instruction
system.cpu00.commit.op_class_0::total          968720                       # Class of committed instruction
system.cpu00.commit.bw_lim_events               52973                       # number cycles where commit BW limit reached
system.cpu00.rob.rob_reads                    1818870                       # The number of ROB reads
system.cpu00.rob.rob_writes                   2165376                       # The number of ROB writes
system.cpu00.timesIdled                          1401                       # Number of times that the entire CPU went into an idle state and unscheduled itself
system.cpu00.idleCycles                        198280                       # Total number of cycles that the CPU has spent unscheduled due to idling
system.cpu00.quiesceCycles                      83257                       # Total number of cycles that CPU has spent quiesced or waiting for an interrupt
system.cpu00.committedInsts                    870059                       # Number of Instructions Simulated
system.cpu00.committedOps                      870059                       # Number of Ops (including micro ops) Simulated
system.cpu00.cpi                             1.168054                       # CPI: Cycles Per Instruction
system.cpu00.cpi_total                       1.168054                       # CPI: Total CPI of All Threads
system.cpu00.ipc                             0.856125                       # IPC: Instructions Per Cycle
system.cpu00.ipc_total                       0.856125                       # IPC: Total IPC of All Threads
system.cpu00.int_regfile_reads                1141449                       # number of integer regfile reads
system.cpu00.int_regfile_writes                613288                       # number of integer regfile writes
system.cpu00.fp_regfile_reads                  151800                       # number of floating regfile reads
system.cpu00.fp_regfile_writes                 102917                       # number of floating regfile writes
system.cpu00.misc_regfile_reads                  4992                       # number of misc regfile reads
system.cpu00.misc_regfile_writes                 2254                       # number of misc regfile writes
system.cpu00.dcache.tags.replacements           11999                       # number of replacements
system.cpu00.dcache.tags.tagsinuse         123.829770                       # Cycle average of tags in use
system.cpu00.dcache.tags.total_refs            228449                       # Total number of references to valid blocks.
system.cpu00.dcache.tags.sampled_refs           12126                       # Sample count of references to valid blocks.
system.cpu00.dcache.tags.avg_refs           18.839601                       # Average number of references to valid blocks.
system.cpu00.dcache.tags.warmup_cycle        90944960                       # Cycle when the warmup percentage was hit.
system.cpu00.dcache.tags.occ_blocks::cpu00.data   123.829770                       # Average occupied blocks per requestor
system.cpu00.dcache.tags.occ_percent::cpu00.data     0.967420                       # Average percentage of cache occupancy
system.cpu00.dcache.tags.occ_percent::total     0.967420                       # Average percentage of cache occupancy
system.cpu00.dcache.tags.occ_task_id_blocks::1024          127                       # Occupied blocks per task id
system.cpu00.dcache.tags.age_task_id_blocks_1024::0           68                       # Occupied blocks per task id
system.cpu00.dcache.tags.age_task_id_blocks_1024::1           51                       # Occupied blocks per task id
system.cpu00.dcache.tags.age_task_id_blocks_1024::2            8                       # Occupied blocks per task id
system.cpu00.dcache.tags.occ_task_id_percent::1024     0.992188                       # Percentage of cache occupancy per task id
system.cpu00.dcache.tags.tag_accesses          554921                       # Number of tag accesses
system.cpu00.dcache.tags.data_accesses         554921                       # Number of data accesses
system.cpu00.dcache.ReadReq_hits::cpu00.data       141691                       # number of ReadReq hits
system.cpu00.dcache.ReadReq_hits::total        141691                       # number of ReadReq hits
system.cpu00.dcache.WriteReq_hits::cpu00.data        84585                       # number of WriteReq hits
system.cpu00.dcache.WriteReq_hits::total        84585                       # number of WriteReq hits
system.cpu00.dcache.LoadLockedReq_hits::cpu00.data          927                       # number of LoadLockedReq hits
system.cpu00.dcache.LoadLockedReq_hits::total          927                       # number of LoadLockedReq hits
system.cpu00.dcache.StoreCondReq_hits::cpu00.data         1101                       # number of StoreCondReq hits
system.cpu00.dcache.StoreCondReq_hits::total         1101                       # number of StoreCondReq hits
system.cpu00.dcache.demand_hits::cpu00.data       226276                       # number of demand (read+write) hits
system.cpu00.dcache.demand_hits::total         226276                       # number of demand (read+write) hits
system.cpu00.dcache.overall_hits::cpu00.data       226276                       # number of overall hits
system.cpu00.dcache.overall_hits::total        226276                       # number of overall hits
system.cpu00.dcache.ReadReq_misses::cpu00.data         8866                       # number of ReadReq misses
system.cpu00.dcache.ReadReq_misses::total         8866                       # number of ReadReq misses
system.cpu00.dcache.WriteReq_misses::cpu00.data        33818                       # number of WriteReq misses
system.cpu00.dcache.WriteReq_misses::total        33818                       # number of WriteReq misses
system.cpu00.dcache.LoadLockedReq_misses::cpu00.data          267                       # number of LoadLockedReq misses
system.cpu00.dcache.LoadLockedReq_misses::total          267                       # number of LoadLockedReq misses
system.cpu00.dcache.StoreCondReq_misses::cpu00.data           23                       # number of StoreCondReq misses
system.cpu00.dcache.StoreCondReq_misses::total           23                       # number of StoreCondReq misses
system.cpu00.dcache.demand_misses::cpu00.data        42684                       # number of demand (read+write) misses
system.cpu00.dcache.demand_misses::total        42684                       # number of demand (read+write) misses
system.cpu00.dcache.overall_misses::cpu00.data        42684                       # number of overall misses
system.cpu00.dcache.overall_misses::total        42684                       # number of overall misses
system.cpu00.dcache.ReadReq_miss_latency::cpu00.data    404594860                       # number of ReadReq miss cycles
system.cpu00.dcache.ReadReq_miss_latency::total    404594860                       # number of ReadReq miss cycles
system.cpu00.dcache.WriteReq_miss_latency::cpu00.data   5470157429                       # number of WriteReq miss cycles
system.cpu00.dcache.WriteReq_miss_latency::total   5470157429                       # number of WriteReq miss cycles
system.cpu00.dcache.LoadLockedReq_miss_latency::cpu00.data      2822560                       # number of LoadLockedReq miss cycles
system.cpu00.dcache.LoadLockedReq_miss_latency::total      2822560                       # number of LoadLockedReq miss cycles
system.cpu00.dcache.StoreCondReq_miss_latency::cpu00.data       366980                       # number of StoreCondReq miss cycles
system.cpu00.dcache.StoreCondReq_miss_latency::total       366980                       # number of StoreCondReq miss cycles
system.cpu00.dcache.demand_miss_latency::cpu00.data   5874752289                       # number of demand (read+write) miss cycles
system.cpu00.dcache.demand_miss_latency::total   5874752289                       # number of demand (read+write) miss cycles
system.cpu00.dcache.overall_miss_latency::cpu00.data   5874752289                       # number of overall miss cycles
system.cpu00.dcache.overall_miss_latency::total   5874752289                       # number of overall miss cycles
system.cpu00.dcache.ReadReq_accesses::cpu00.data       150557                       # number of ReadReq accesses(hits+misses)
system.cpu00.dcache.ReadReq_accesses::total       150557                       # number of ReadReq accesses(hits+misses)
system.cpu00.dcache.WriteReq_accesses::cpu00.data       118403                       # number of WriteReq accesses(hits+misses)
system.cpu00.dcache.WriteReq_accesses::total       118403                       # number of WriteReq accesses(hits+misses)
system.cpu00.dcache.LoadLockedReq_accesses::cpu00.data         1194                       # number of LoadLockedReq accesses(hits+misses)
system.cpu00.dcache.LoadLockedReq_accesses::total         1194                       # number of LoadLockedReq accesses(hits+misses)
system.cpu00.dcache.StoreCondReq_accesses::cpu00.data         1124                       # number of StoreCondReq accesses(hits+misses)
system.cpu00.dcache.StoreCondReq_accesses::total         1124                       # number of StoreCondReq accesses(hits+misses)
system.cpu00.dcache.demand_accesses::cpu00.data       268960                       # number of demand (read+write) accesses
system.cpu00.dcache.demand_accesses::total       268960                       # number of demand (read+write) accesses
system.cpu00.dcache.overall_accesses::cpu00.data       268960                       # number of overall (read+write) accesses
system.cpu00.dcache.overall_accesses::total       268960                       # number of overall (read+write) accesses
system.cpu00.dcache.ReadReq_miss_rate::cpu00.data     0.058888                       # miss rate for ReadReq accesses
system.cpu00.dcache.ReadReq_miss_rate::total     0.058888                       # miss rate for ReadReq accesses
system.cpu00.dcache.WriteReq_miss_rate::cpu00.data     0.285618                       # miss rate for WriteReq accesses
system.cpu00.dcache.WriteReq_miss_rate::total     0.285618                       # miss rate for WriteReq accesses
system.cpu00.dcache.LoadLockedReq_miss_rate::cpu00.data     0.223618                       # miss rate for LoadLockedReq accesses
system.cpu00.dcache.LoadLockedReq_miss_rate::total     0.223618                       # miss rate for LoadLockedReq accesses
system.cpu00.dcache.StoreCondReq_miss_rate::cpu00.data     0.020463                       # miss rate for StoreCondReq accesses
system.cpu00.dcache.StoreCondReq_miss_rate::total     0.020463                       # miss rate for StoreCondReq accesses
system.cpu00.dcache.demand_miss_rate::cpu00.data     0.158700                       # miss rate for demand accesses
system.cpu00.dcache.demand_miss_rate::total     0.158700                       # miss rate for demand accesses
system.cpu00.dcache.overall_miss_rate::cpu00.data     0.158700                       # miss rate for overall accesses
system.cpu00.dcache.overall_miss_rate::total     0.158700                       # miss rate for overall accesses
system.cpu00.dcache.ReadReq_avg_miss_latency::cpu00.data 45634.430408                       # average ReadReq miss latency
system.cpu00.dcache.ReadReq_avg_miss_latency::total 45634.430408                       # average ReadReq miss latency
system.cpu00.dcache.WriteReq_avg_miss_latency::cpu00.data 161752.836625                       # average WriteReq miss latency
system.cpu00.dcache.WriteReq_avg_miss_latency::total 161752.836625                       # average WriteReq miss latency
system.cpu00.dcache.LoadLockedReq_avg_miss_latency::cpu00.data 10571.385768                       # average LoadLockedReq miss latency
system.cpu00.dcache.LoadLockedReq_avg_miss_latency::total 10571.385768                       # average LoadLockedReq miss latency
system.cpu00.dcache.StoreCondReq_avg_miss_latency::cpu00.data 15955.652174                       # average StoreCondReq miss latency
system.cpu00.dcache.StoreCondReq_avg_miss_latency::total 15955.652174                       # average StoreCondReq miss latency
system.cpu00.dcache.demand_avg_miss_latency::cpu00.data 137633.593126                       # average overall miss latency
system.cpu00.dcache.demand_avg_miss_latency::total 137633.593126                       # average overall miss latency
system.cpu00.dcache.overall_avg_miss_latency::cpu00.data 137633.593126                       # average overall miss latency
system.cpu00.dcache.overall_avg_miss_latency::total 137633.593126                       # average overall miss latency
system.cpu00.dcache.blocked_cycles::no_mshrs       157446                       # number of cycles access was blocked
system.cpu00.dcache.blocked_cycles::no_targets            0                       # number of cycles access was blocked
system.cpu00.dcache.blocked::no_mshrs            2795                       # number of cycles access was blocked
system.cpu00.dcache.blocked::no_targets             0                       # number of cycles access was blocked
system.cpu00.dcache.avg_blocked_cycles::no_mshrs    56.331306                       # average number of cycles each access was blocked
system.cpu00.dcache.avg_blocked_cycles::no_targets          nan                       # average number of cycles each access was blocked
system.cpu00.dcache.fast_writes                     0                       # number of fast writes performed
system.cpu00.dcache.cache_copies                    0                       # number of cache copies performed
system.cpu00.dcache.writebacks::writebacks         8935                       # number of writebacks
system.cpu00.dcache.writebacks::total            8935                       # number of writebacks
system.cpu00.dcache.ReadReq_mshr_hits::cpu00.data         3041                       # number of ReadReq MSHR hits
system.cpu00.dcache.ReadReq_mshr_hits::total         3041                       # number of ReadReq MSHR hits
system.cpu00.dcache.WriteReq_mshr_hits::cpu00.data        27318                       # number of WriteReq MSHR hits
system.cpu00.dcache.WriteReq_mshr_hits::total        27318                       # number of WriteReq MSHR hits
system.cpu00.dcache.LoadLockedReq_mshr_hits::cpu00.data          148                       # number of LoadLockedReq MSHR hits
system.cpu00.dcache.LoadLockedReq_mshr_hits::total          148                       # number of LoadLockedReq MSHR hits
system.cpu00.dcache.demand_mshr_hits::cpu00.data        30359                       # number of demand (read+write) MSHR hits
system.cpu00.dcache.demand_mshr_hits::total        30359                       # number of demand (read+write) MSHR hits
system.cpu00.dcache.overall_mshr_hits::cpu00.data        30359                       # number of overall MSHR hits
system.cpu00.dcache.overall_mshr_hits::total        30359                       # number of overall MSHR hits
system.cpu00.dcache.ReadReq_mshr_misses::cpu00.data         5825                       # number of ReadReq MSHR misses
system.cpu00.dcache.ReadReq_mshr_misses::total         5825                       # number of ReadReq MSHR misses
system.cpu00.dcache.WriteReq_mshr_misses::cpu00.data         6500                       # number of WriteReq MSHR misses
system.cpu00.dcache.WriteReq_mshr_misses::total         6500                       # number of WriteReq MSHR misses
system.cpu00.dcache.LoadLockedReq_mshr_misses::cpu00.data          119                       # number of LoadLockedReq MSHR misses
system.cpu00.dcache.LoadLockedReq_mshr_misses::total          119                       # number of LoadLockedReq MSHR misses
system.cpu00.dcache.StoreCondReq_mshr_misses::cpu00.data           22                       # number of StoreCondReq MSHR misses
system.cpu00.dcache.StoreCondReq_mshr_misses::total           22                       # number of StoreCondReq MSHR misses
system.cpu00.dcache.demand_mshr_misses::cpu00.data        12325                       # number of demand (read+write) MSHR misses
system.cpu00.dcache.demand_mshr_misses::total        12325                       # number of demand (read+write) MSHR misses
system.cpu00.dcache.overall_mshr_misses::cpu00.data        12325                       # number of overall MSHR misses
system.cpu00.dcache.overall_mshr_misses::total        12325                       # number of overall MSHR misses
system.cpu00.dcache.ReadReq_mshr_miss_latency::cpu00.data    238406020                       # number of ReadReq MSHR miss cycles
system.cpu00.dcache.ReadReq_mshr_miss_latency::total    238406020                       # number of ReadReq MSHR miss cycles
system.cpu00.dcache.WriteReq_mshr_miss_latency::cpu00.data   1157821798                       # number of WriteReq MSHR miss cycles
system.cpu00.dcache.WriteReq_mshr_miss_latency::total   1157821798                       # number of WriteReq MSHR miss cycles
system.cpu00.dcache.LoadLockedReq_mshr_miss_latency::cpu00.data      1050200                       # number of LoadLockedReq MSHR miss cycles
system.cpu00.dcache.LoadLockedReq_mshr_miss_latency::total      1050200                       # number of LoadLockedReq MSHR miss cycles
system.cpu00.dcache.StoreCondReq_mshr_miss_latency::cpu00.data       341020                       # number of StoreCondReq MSHR miss cycles
system.cpu00.dcache.StoreCondReq_mshr_miss_latency::total       341020                       # number of StoreCondReq MSHR miss cycles
system.cpu00.dcache.demand_mshr_miss_latency::cpu00.data   1396227818                       # number of demand (read+write) MSHR miss cycles
system.cpu00.dcache.demand_mshr_miss_latency::total   1396227818                       # number of demand (read+write) MSHR miss cycles
system.cpu00.dcache.overall_mshr_miss_latency::cpu00.data   1396227818                       # number of overall MSHR miss cycles
system.cpu00.dcache.overall_mshr_miss_latency::total   1396227818                       # number of overall MSHR miss cycles
system.cpu00.dcache.ReadReq_mshr_miss_rate::cpu00.data     0.038690                       # mshr miss rate for ReadReq accesses
system.cpu00.dcache.ReadReq_mshr_miss_rate::total     0.038690                       # mshr miss rate for ReadReq accesses
system.cpu00.dcache.WriteReq_mshr_miss_rate::cpu00.data     0.054897                       # mshr miss rate for WriteReq accesses
system.cpu00.dcache.WriteReq_mshr_miss_rate::total     0.054897                       # mshr miss rate for WriteReq accesses
system.cpu00.dcache.LoadLockedReq_mshr_miss_rate::cpu00.data     0.099665                       # mshr miss rate for LoadLockedReq accesses
system.cpu00.dcache.LoadLockedReq_mshr_miss_rate::total     0.099665                       # mshr miss rate for LoadLockedReq accesses
system.cpu00.dcache.StoreCondReq_mshr_miss_rate::cpu00.data     0.019573                       # mshr miss rate for StoreCondReq accesses
system.cpu00.dcache.StoreCondReq_mshr_miss_rate::total     0.019573                       # mshr miss rate for StoreCondReq accesses
system.cpu00.dcache.demand_mshr_miss_rate::cpu00.data     0.045825                       # mshr miss rate for demand accesses
system.cpu00.dcache.demand_mshr_miss_rate::total     0.045825                       # mshr miss rate for demand accesses
system.cpu00.dcache.overall_mshr_miss_rate::cpu00.data     0.045825                       # mshr miss rate for overall accesses
system.cpu00.dcache.overall_mshr_miss_rate::total     0.045825                       # mshr miss rate for overall accesses
system.cpu00.dcache.ReadReq_avg_mshr_miss_latency::cpu00.data 40928.072103                       # average ReadReq mshr miss latency
system.cpu00.dcache.ReadReq_avg_mshr_miss_latency::total 40928.072103                       # average ReadReq mshr miss latency
system.cpu00.dcache.WriteReq_avg_mshr_miss_latency::cpu00.data 178126.430462                       # average WriteReq mshr miss latency
system.cpu00.dcache.WriteReq_avg_mshr_miss_latency::total 178126.430462                       # average WriteReq mshr miss latency
system.cpu00.dcache.LoadLockedReq_avg_mshr_miss_latency::cpu00.data  8825.210084                       # average LoadLockedReq mshr miss latency
system.cpu00.dcache.LoadLockedReq_avg_mshr_miss_latency::total  8825.210084                       # average LoadLockedReq mshr miss latency
system.cpu00.dcache.StoreCondReq_avg_mshr_miss_latency::cpu00.data 15500.909091                       # average StoreCondReq mshr miss latency
system.cpu00.dcache.StoreCondReq_avg_mshr_miss_latency::total 15500.909091                       # average StoreCondReq mshr miss latency
system.cpu00.dcache.demand_avg_mshr_miss_latency::cpu00.data 113284.204300                       # average overall mshr miss latency
system.cpu00.dcache.demand_avg_mshr_miss_latency::total 113284.204300                       # average overall mshr miss latency
[...]
system.tol2bus.pkt_count_system.cpu06.dcache.mem_side::system.l2.cpu_side         1842                       # Packet count per connected master and slave (bytes)
system.tol2bus.pkt_count_system.cpu07.icache.mem_side::system.l2.cpu_side         3332                       # Packet count per connected master and slave (bytes)
system.tol2bus.pkt_count_system.cpu07.dcache.mem_side::system.l2.cpu_side         3475                       # Packet count per connected master and slave (bytes)
system.tol2bus.pkt_count_system.cpu08.icache.mem_side::system.l2.cpu_side         2448                       # Packet count per connected master and slave (bytes)
system.tol2bus.pkt_count_system.cpu08.dcache.mem_side::system.l2.cpu_side         2843                       # Packet count per connected master and slave (bytes)
system.tol2bus.pkt_count_system.cpu09.icache.mem_side::system.l2.cpu_side         1098                       # Packet count per connected master and slave (bytes)
system.tol2bus.pkt_count_system.cpu09.dcache.mem_side::system.l2.cpu_side         1183                       # Packet count per connected master and slave (bytes)
system.tol2bus.pkt_count_system.cpu10.icache.mem_side::system.l2.cpu_side         1024                       # Packet count per connected master and slave (bytes)
system.tol2bus.pkt_count_system.cpu10.dcache.mem_side::system.l2.cpu_side         1177                       # Packet count per connected master and slave (bytes)
system.tol2bus.pkt_count_system.cpu11.icache.mem_side::system.l2.cpu_side         1137                       # Packet count per connected master and slave (bytes)
system.tol2bus.pkt_count_system.cpu11.dcache.mem_side::system.l2.cpu_side         1100                       # Packet count per connected master and slave (bytes)
system.tol2bus.pkt_count_system.cpu12.icache.mem_side::system.l2.cpu_side         3451                       # Packet count per connected master and slave (bytes)
system.tol2bus.pkt_count_system.cpu12.dcache.mem_side::system.l2.cpu_side         4028                       # Packet count per connected master and slave (bytes)
system.tol2bus.pkt_count_system.cpu13.icache.mem_side::system.l2.cpu_side         3414                       # Packet count per connected master and slave (bytes)
system.tol2bus.pkt_count_system.cpu13.dcache.mem_side::system.l2.cpu_side         3705                       # Packet count per connected master and slave (bytes)
system.tol2bus.pkt_count_system.cpu14.icache.mem_side::system.l2.cpu_side         1226                       # Packet count per connected master and slave (bytes)
system.tol2bus.pkt_count_system.cpu14.dcache.mem_side::system.l2.cpu_side         1206                       # Packet count per connected master and slave (bytes)
system.tol2bus.pkt_count_system.cpu15.icache.mem_side::system.l2.cpu_side         2637                       # Packet count per connected master and slave (bytes)
system.tol2bus.pkt_count_system.cpu15.dcache.mem_side::system.l2.cpu_side         3092                       # Packet count per connected master and slave (bytes)
system.tol2bus.pkt_count::total                128658                       # Packet count per connected master and slave (bytes)
system.tol2bus.pkt_size_system.cpu00.icache.mem_side::system.l2.cpu_side       971904                       # Cumulative packet size per connected master and slave (bytes)
system.tol2bus.pkt_size_system.cpu00.dcache.mem_side::system.l2.cpu_side      1346240                       # Cumulative packet size per connected master and slave (bytes)
system.tol2bus.pkt_size_system.cpu01.icache.mem_side::system.l2.cpu_side        94464                       # Cumulative packet size per connected master and slave (bytes)
system.tol2bus.pkt_size_system.cpu01.dcache.mem_side::system.l2.cpu_side        53888                       # Cumulative packet size per connected master and slave (bytes)
system.tol2bus.pkt_size_system.cpu02.icache.mem_side::system.l2.cpu_side       110912                       # Cumulative packet size per connected master and slave (bytes)
system.tol2bus.pkt_size_system.cpu02.dcache.mem_side::system.l2.cpu_side        69696                       # Cumulative packet size per connected master and slave (bytes)
system.tol2bus.pkt_size_system.cpu03.icache.mem_side::system.l2.cpu_side       129472                       # Cumulative packet size per connected master and slave (bytes)
system.tol2bus.pkt_size_system.cpu03.dcache.mem_side::system.l2.cpu_side        77760                       # Cumulative packet size per connected master and slave (bytes)
system.tol2bus.pkt_size_system.cpu04.icache.mem_side::system.l2.cpu_side        34752                       # Cumulative packet size per connected master and slave (bytes)
system.tol2bus.pkt_size_system.cpu04.dcache.mem_side::system.l2.cpu_side        33984                       # Cumulative packet size per connected master and slave (bytes)
system.tol2bus.pkt_size_system.cpu05.icache.mem_side::system.l2.cpu_side        31296                       # Cumulative packet size per connected master and slave (bytes)
system.tol2bus.pkt_size_system.cpu05.dcache.mem_side::system.l2.cpu_side        28736                       # Cumulative packet size per connected master and slave (bytes)
system.tol2bus.pkt_size_system.cpu06.icache.mem_side::system.l2.cpu_side        60352                       # Cumulative packet size per connected master and slave (bytes)
system.tol2bus.pkt_size_system.cpu06.dcache.mem_side::system.l2.cpu_side        38912                       # Cumulative packet size per connected master and slave (bytes)
system.tol2bus.pkt_size_system.cpu07.icache.mem_side::system.l2.cpu_side       131520                       # Cumulative packet size per connected master and slave (bytes)
system.tol2bus.pkt_size_system.cpu07.dcache.mem_side::system.l2.cpu_side        64384                       # Cumulative packet size per connected master and slave (bytes)
system.tol2bus.pkt_size_system.cpu08.icache.mem_side::system.l2.cpu_side        94272                       # Cumulative packet size per connected master and slave (bytes)
system.tol2bus.pkt_size_system.cpu08.dcache.mem_side::system.l2.cpu_side        61760                       # Cumulative packet size per connected master and slave (bytes)
system.tol2bus.pkt_size_system.cpu09.icache.mem_side::system.l2.cpu_side        38336                       # Cumulative packet size per connected master and slave (bytes)
system.tol2bus.pkt_size_system.cpu09.dcache.mem_side::system.l2.cpu_side        34240                       # Cumulative packet size per connected master and slave (bytes)
system.tol2bus.pkt_size_system.cpu10.icache.mem_side::system.l2.cpu_side        35328                       # Cumulative packet size per connected master and slave (bytes)
system.tol2bus.pkt_size_system.cpu10.dcache.mem_side::system.l2.cpu_side        33536                       # Cumulative packet size per connected master and slave (bytes)
system.tol2bus.pkt_size_system.cpu11.icache.mem_side::system.l2.cpu_side        39872                       # Cumulative packet size per connected master and slave (bytes)
system.tol2bus.pkt_size_system.cpu11.dcache.mem_side::system.l2.cpu_side        27456                       # Cumulative packet size per connected master and slave (bytes)
system.tol2bus.pkt_size_system.cpu12.icache.mem_side::system.l2.cpu_side       137344                       # Cumulative packet size per connected master and slave (bytes)
system.tol2bus.pkt_size_system.cpu12.dcache.mem_side::system.l2.cpu_side        63616                       # Cumulative packet size per connected master and slave (bytes)
system.tol2bus.pkt_size_system.cpu13.icache.mem_side::system.l2.cpu_side       135232                       # Cumulative packet size per connected master and slave (bytes)
system.tol2bus.pkt_size_system.cpu13.dcache.mem_side::system.l2.cpu_side        70272                       # Cumulative packet size per connected master and slave (bytes)
system.tol2bus.pkt_size_system.cpu14.icache.mem_side::system.l2.cpu_side        43136                       # Cumulative packet size per connected master and slave (bytes)
system.tol2bus.pkt_size_system.cpu14.dcache.mem_side::system.l2.cpu_side        34880                       # Cumulative packet size per connected master and slave (bytes)
system.tol2bus.pkt_size_system.cpu15.icache.mem_side::system.l2.cpu_side       102336                       # Cumulative packet size per connected master and slave (bytes)
system.tol2bus.pkt_size_system.cpu15.dcache.mem_side::system.l2.cpu_side        73344                       # Cumulative packet size per connected master and slave (bytes)
system.tol2bus.pkt_size::total                4303232                       # Cumulative packet size per connected master and slave (bytes)
system.tol2bus.snoops                            9249                       # Total snoops (count)
system.tol2bus.snoop_fanout::samples            51183                       # Request fanout histogram
system.tol2bus.snoop_fanout::mean            2.377176                       # Request fanout histogram
system.tol2bus.snoop_fanout::stdev           3.837736                       # Request fanout histogram
system.tol2bus.snoop_fanout::underflows             0      0.00%      0.00% # Request fanout histogram
system.tol2bus.snoop_fanout::0                  25206     49.25%     49.25% # Request fanout histogram
system.tol2bus.snoop_fanout::1                   9899     19.34%     68.59% # Request fanout histogram
system.tol2bus.snoop_fanout::2                   2904      5.67%     74.26% # Request fanout histogram
system.tol2bus.snoop_fanout::3                   1485      2.90%     77.16% # Request fanout histogram
system.tol2bus.snoop_fanout::4                   1310      2.56%     79.72% # Request fanout histogram
system.tol2bus.snoop_fanout::5                   1211      2.37%     82.09% # Request fanout histogram
system.tol2bus.snoop_fanout::6                   1183      2.31%     84.40% # Request fanout histogram
system.tol2bus.snoop_fanout::7                   1185      2.32%     86.71% # Request fanout histogram
system.tol2bus.snoop_fanout::8                   1098      2.15%     88.86% # Request fanout histogram
system.tol2bus.snoop_fanout::9                   1066      2.08%     90.94% # Request fanout histogram
system.tol2bus.snoop_fanout::10                   923      1.80%     92.75% # Request fanout histogram
system.tol2bus.snoop_fanout::11                   976      1.91%     94.65% # Request fanout histogram
system.tol2bus.snoop_fanout::12                   791      1.55%     96.20% # Request fanout histogram
system.tol2bus.snoop_fanout::13                   731      1.43%     97.63% # Request fanout histogram
system.tol2bus.snoop_fanout::14                   743      1.45%     99.08% # Request fanout histogram
system.tol2bus.snoop_fanout::15                   472      0.92%    100.00% # Request fanout histogram
system.tol2bus.snoop_fanout::16                     0      0.00%    100.00% # Request fanout histogram
system.tol2bus.snoop_fanout::17                     0      0.00%    100.00% # Request fanout histogram
system.tol2bus.snoop_fanout::18                     0      0.00%    100.00% # Request fanout histogram
system.tol2bus.snoop_fanout::19                     0      0.00%    100.00% # Request fanout histogram
system.tol2bus.snoop_fanout::20                     0      0.00%    100.00% # Request fanout histogram
system.tol2bus.snoop_fanout::21                     0      0.00%    100.00% # Request fanout histogram
system.tol2bus.snoop_fanout::22                     0      0.00%    100.00% # Request fanout histogram
system.tol2bus.snoop_fanout::23                     0      0.00%    100.00% # Request fanout histogram
system.tol2bus.snoop_fanout::24                     0      0.00%    100.00% # Request fanout histogram
system.tol2bus.snoop_fanout::25                     0      0.00%    100.00% # Request fanout histogram
system.tol2bus.snoop_fanout::26                     0      0.00%    100.00% # Request fanout histogram
system.tol2bus.snoop_fanout::27                     0      0.00%    100.00% # Request fanout histogram
system.tol2bus.snoop_fanout::28                     0      0.00%    100.00% # Request fanout histogram
system.tol2bus.snoop_fanout::29                     0      0.00%    100.00% # Request fanout histogram
system.tol2bus.snoop_fanout::30                     0      0.00%    100.00% # Request fanout histogram
system.tol2bus.snoop_fanout::31                     0      0.00%    100.00% # Request fanout histogram
system.tol2bus.snoop_fanout::32                     0      0.00%    100.00% # Request fanout histogram
system.tol2bus.snoop_fanout::overflows              0      0.00%    100.00% # Request fanout histogram
system.tol2bus.snoop_fanout::min_value              0                       # Request fanout histogram
system.tol2bus.snoop_fanout::max_value             15                       # Request fanout histogram
system.tol2bus.snoop_fanout::total              51183                       # Request fanout histogram
system.tol2bus.reqLayer0.occupancy          165710253                       # Layer occupancy (ticks)
system.tol2bus.reqLayer0.utilization             12.8                       # Layer utilization (%)
system.tol2bus.respLayer0.occupancy          28108753                       # Layer occupancy (ticks)
system.tol2bus.respLayer0.utilization             2.2                       # Layer utilization (%)
system.tol2bus.respLayer1.occupancy          44163605                       # Layer occupancy (ticks)
system.tol2bus.respLayer1.utilization             3.4                       # Layer utilization (%)
system.tol2bus.respLayer2.occupancy           3549318                       # Layer occupancy (ticks)
system.tol2bus.respLayer2.utilization             0.3                       # Layer utilization (%)
system.tol2bus.respLayer3.occupancy           4908795                       # Layer occupancy (ticks)
system.tol2bus.respLayer3.utilization             0.4                       # Layer utilization (%)
system.tol2bus.respLayer4.occupancy           4021704                       # Layer occupancy (ticks)
system.tol2bus.respLayer4.utilization             0.3                       # Layer utilization (%)
system.tol2bus.respLayer5.occupancy           5837341                       # Layer occupancy (ticks)
system.tol2bus.respLayer5.utilization             0.4                       # Layer utilization (%)
system.tol2bus.respLayer6.occupancy           4507778                       # Layer occupancy (ticks)
system.tol2bus.respLayer6.utilization             0.3                       # Layer utilization (%)
system.tol2bus.respLayer7.occupancy           7233848                       # Layer occupancy (ticks)
system.tol2bus.respLayer7.utilization             0.6                       # Layer utilization (%)
system.tol2bus.respLayer8.occupancy           1714112                       # Layer occupancy (ticks)
system.tol2bus.respLayer8.utilization             0.1                       # Layer utilization (%)
system.tol2bus.respLayer9.occupancy           1727476                       # Layer occupancy (ticks)
system.tol2bus.respLayer9.utilization             0.1                       # Layer utilization (%)
system.tol2bus.respLayer10.occupancy          1592857                       # Layer occupancy (ticks)
system.tol2bus.respLayer10.utilization            0.1                       # Layer utilization (%)
system.tol2bus.respLayer11.occupancy          1649298                       # Layer occupancy (ticks)
system.tol2bus.respLayer11.utilization            0.1                       # Layer utilization (%)
system.tol2bus.respLayer12.occupancy          2558338                       # Layer occupancy (ticks)
system.tol2bus.respLayer12.utilization            0.2                       # Layer utilization (%)
system.tol2bus.respLayer13.occupancy          2509734                       # Layer occupancy (ticks)
system.tol2bus.respLayer13.utilization            0.2                       # Layer utilization (%)
system.tol2bus.respLayer14.occupancy          4607873                       # Layer occupancy (ticks)
system.tol2bus.respLayer14.utilization            0.4                       # Layer utilization (%)
system.tol2bus.respLayer15.occupancy          5695236                       # Layer occupancy (ticks)
system.tol2bus.respLayer15.utilization            0.4                       # Layer utilization (%)
system.tol2bus.respLayer16.occupancy          3530307                       # Layer occupancy (ticks)
system.tol2bus.respLayer16.utilization            0.3                       # Layer utilization (%)
system.tol2bus.respLayer17.occupancy          4401285                       # Layer occupancy (ticks)
system.tol2bus.respLayer17.utilization            0.3                       # Layer utilization (%)
system.tol2bus.respLayer18.occupancy          1826414                       # Layer occupancy (ticks)
system.tol2bus.respLayer18.utilization            0.1                       # Layer utilization (%)
system.tol2bus.respLayer19.occupancy          1795899                       # Layer occupancy (ticks)
system.tol2bus.respLayer19.utilization            0.1                       # Layer utilization (%)
system.tol2bus.respLayer20.occupancy          1719430                       # Layer occupancy (ticks)
system.tol2bus.respLayer20.utilization            0.1                       # Layer utilization (%)
system.tol2bus.respLayer21.occupancy          1787646                       # Layer occupancy (ticks)
system.tol2bus.respLayer21.utilization            0.1                       # Layer utilization (%)
system.tol2bus.respLayer22.occupancy          1868847                       # Layer occupancy (ticks)
system.tol2bus.respLayer22.utilization            0.1                       # Layer utilization (%)
system.tol2bus.respLayer23.occupancy          1718008                       # Layer occupancy (ticks)
system.tol2bus.respLayer23.utilization            0.1                       # Layer utilization (%)
system.tol2bus.respLayer24.occupancy          4702147                       # Layer occupancy (ticks)
system.tol2bus.respLayer24.utilization            0.4                       # Layer utilization (%)
system.tol2bus.respLayer25.occupancy          6596700                       # Layer occupancy (ticks)
system.tol2bus.respLayer25.utilization            0.5                       # Layer utilization (%)
system.tol2bus.respLayer26.occupancy          4711894                       # Layer occupancy (ticks)
system.tol2bus.respLayer26.utilization            0.4                       # Layer utilization (%)
system.tol2bus.respLayer27.occupancy          6012092                       # Layer occupancy (ticks)
system.tol2bus.respLayer27.utilization            0.5                       # Layer utilization (%)
system.tol2bus.respLayer28.occupancy          2014089                       # Layer occupancy (ticks)
system.tol2bus.respLayer28.utilization            0.2                       # Layer utilization (%)
system.tol2bus.respLayer29.occupancy          1768759                       # Layer occupancy (ticks)
system.tol2bus.respLayer29.utilization            0.1                       # Layer utilization (%)
system.tol2bus.respLayer30.occupancy          3739086                       # Layer occupancy (ticks)
system.tol2bus.respLayer30.utilization            0.3                       # Layer utilization (%)
system.tol2bus.respLayer31.occupancy          4814329                       # Layer occupancy (ticks)
system.tol2bus.respLayer31.utilization            0.4                       # Layer utilization (%)

---------- End Simulation Statistics   ----------
