
---------- Begin Simulation Statistics ----------
sim_seconds                                  0.001284                       # Number of seconds simulated
sim_ticks                                  1283821866                       # Number of ticks simulated
final_tick                                 1283821866                       # Number of ticks from beginning of simulation (restored from checkpoints and never reset)
sim_freq                                 1000000000000                       # Frequency of simulated ticks
host_inst_rate                                 230430                       # Simulator instruction rate (inst/s)
host_op_rate                                   230430                       # Simulator op (including micro ops) rate (op/s)
host_tick_rate                              153329091                       # Simulator tick rate (ticks/s)
host_mem_usage                                 694928                       # Number of bytes of host memory used
host_seconds                                     8.37                       # Real time elapsed on the host
sim_insts                                     1929383                       # Number of instructions simulated
sim_ops                                       1929383                       # Number of ops (including micro ops) simulated
system.voltage_domain.voltage                       1                       # Voltage in Volts
system.clk_domain.clock                          1000                       # Clock period in ticks
system.mem_ctrls.bytes_read::cpu00.inst        123136                       # Number of bytes read from this memory
system.mem_ctrls.bytes_read::cpu00.data        378048                       # Number of bytes read from this memory
system.mem_ctrls.bytes_read::cpu01.inst         12224                       # Number of bytes read from this memory
system.mem_ctrls.bytes_read::cpu01.data          6720                       # Number of bytes read from this memory
system.mem_ctrls.bytes_read::cpu02.inst          2624                       # Number of bytes read from this memory
system.mem_ctrls.bytes_read::cpu02.data          5504                       # Number of bytes read from this memory
system.mem_ctrls.bytes_read::cpu03.inst          1024                       # Number of bytes read from this memory
system.mem_ctrls.bytes_read::cpu03.data          6144                       # Number of bytes read from this memory
system.mem_ctrls.bytes_read::cpu04.inst           256                       # Number of bytes read from this memory
system.mem_ctrls.bytes_read::cpu04.data          5504                       # Number of bytes read from this memory
system.mem_ctrls.bytes_read::cpu05.inst           192                       # Number of bytes read from this memory
system.mem_ctrls.bytes_read::cpu05.data          5056                       # Number of bytes read from this memory
system.mem_ctrls.bytes_read::cpu06.inst            64                       # Number of bytes read from this memory
system.mem_ctrls.bytes_read::cpu06.data          5440                       # Number of bytes read from this memory
system.mem_ctrls.bytes_read::cpu07.inst          2112                       # Number of bytes read from this memory
system.mem_ctrls.bytes_read::cpu07.data          6528                       # Number of bytes read from this memory
system.mem_ctrls.bytes_read::cpu08.inst          3072                       # Number of bytes read from this memory
system.mem_ctrls.bytes_read::cpu08.data          5504                       # Number of bytes read from this memory
system.mem_ctrls.bytes_read::cpu09.inst           384                       # Number of bytes read from this memory
system.mem_ctrls.bytes_read::cpu09.data          4672                       # Number of bytes read from this memory
system.mem_ctrls.bytes_read::cpu10.inst          1472                       # Number of bytes read from this memory
system.mem_ctrls.bytes_read::cpu10.data          5312                       # Number of bytes read from this memory
system.mem_ctrls.bytes_read::cpu11.inst          2560                       # Number of bytes read from this memory
system.mem_ctrls.bytes_read::cpu11.data          5760                       # Number of bytes read from this memory
system.mem_ctrls.bytes_read::cpu12.inst           640                       # Number of bytes read from this memory
system.mem_ctrls.bytes_read::cpu12.data          5888                       # Number of bytes read from this memory
system.mem_ctrls.bytes_read::cpu13.inst           192                       # Number of bytes read from this memory
system.mem_ctrls.bytes_read::cpu13.data          5056                       # Number of bytes read from this memory
system.mem_ctrls.bytes_read::cpu14.inst          2624                       # Number of bytes read from this memory
system.mem_ctrls.bytes_read::cpu14.data          6528                       # Number of bytes read from this memory
system.mem_ctrls.bytes_read::cpu15.inst          1344                       # Number of bytes read from this memory
system.mem_ctrls.bytes_read::cpu15.data          4928                       # Number of bytes read from this memory
system.mem_ctrls.bytes_read::total             616512                       # Number of bytes read from this memory
system.mem_ctrls.bytes_inst_read::cpu00.inst       123136                       # Number of instructions bytes read from this memory
system.mem_ctrls.bytes_inst_read::cpu01.inst        12224                       # Number of instructions bytes read from this memory
system.mem_ctrls.bytes_inst_read::cpu02.inst         2624                       # Number of instructions bytes read from this memory
system.mem_ctrls.bytes_inst_read::cpu03.inst         1024                       # Number of instructions bytes read from this memory
system.mem_ctrls.bytes_inst_read::cpu04.inst          256                       # Number of instructions bytes read from this memory
system.mem_ctrls.bytes_inst_read::cpu05.inst          192                       # Number of instructions bytes read from this memory
system.mem_ctrls.bytes_inst_read::cpu06.inst           64                       # Number of instructions bytes read from this memory
system.mem_ctrls.bytes_inst_read::cpu07.inst         2112                       # Number of instructions bytes read from this memory
system.mem_ctrls.bytes_inst_read::cpu08.inst         3072                       # Number of instructions bytes read from this memory
system.mem_ctrls.bytes_inst_read::cpu09.inst          384                       # Number of instructions bytes read from this memory
system.mem_ctrls.bytes_inst_read::cpu10.inst         1472                       # Number of instructions bytes read from this memory
system.mem_ctrls.bytes_inst_read::cpu11.inst         2560                       # Number of instructions bytes read from this memory
system.mem_ctrls.bytes_inst_read::cpu12.inst          640                       # Number of instructions bytes read from this memory
system.mem_ctrls.bytes_inst_read::cpu13.inst          192                       # Number of instructions bytes read from this memory
system.mem_ctrls.bytes_inst_read::cpu14.inst         2624                       # Number of instructions bytes read from this memory
system.mem_ctrls.bytes_inst_read::cpu15.inst         1344                       # Number of instructions bytes read from this memory
system.mem_ctrls.bytes_inst_read::total        153920                       # Number of instructions bytes read from this memory
system.mem_ctrls.bytes_written::writebacks        69440                       # Number of bytes written to this memory
system.mem_ctrls.bytes_written::total           69440                       # Number of bytes written to this memory
system.mem_ctrls.num_reads::cpu00.inst           1924                       # Number of read requests responded to by this memory
system.mem_ctrls.num_reads::cpu00.data           5907                       # Number of read requests responded to by this memory
system.mem_ctrls.num_reads::cpu01.inst            191                       # Number of read requests responded to by this memory
system.mem_ctrls.num_reads::cpu01.data            105                       # Number of read requests responded to by this memory
system.mem_ctrls.num_reads::cpu02.inst             41                       # Number of read requests responded to by this memory
system.mem_ctrls.num_reads::cpu02.data             86                       # Number of read requests responded to by this memory
system.mem_ctrls.num_reads::cpu03.inst             16                       # Number of read requests responded to by this memory
system.mem_ctrls.num_reads::cpu03.data             96                       # Number of read requests responded to by this memory
system.mem_ctrls.num_reads::cpu04.inst              4                       # Number of read requests responded to by this memory
system.mem_ctrls.num_reads::cpu04.data             86                       # Number of read requests responded to by this memory
system.mem_ctrls.num_reads::cpu05.inst              3                       # Number of read requests responded to by this memory
system.mem_ctrls.num_reads::cpu05.data             79                       # Number of read requests responded to by this memory
system.mem_ctrls.num_reads::cpu06.inst              1                       # Number of read requests responded to by this memory
system.mem_ctrls.num_reads::cpu06.data             85                       # Number of read requests responded to by this memory
system.mem_ctrls.num_reads::cpu07.inst             33                       # Number of read requests responded to by this memory
system.mem_ctrls.num_reads::cpu07.data            102                       # Number of read requests responded to by this memory
system.mem_ctrls.num_reads::cpu08.inst             48                       # Number of read requests responded to by this memory
system.mem_ctrls.num_reads::cpu08.data             86                       # Number of read requests responded to by this memory
system.mem_ctrls.num_reads::cpu09.inst              6                       # Number of read requests responded to by this memory
system.mem_ctrls.num_reads::cpu09.data             73                       # Number of read requests responded to by this memory
system.mem_ctrls.num_reads::cpu10.inst             23                       # Number of read requests responded to by this memory
system.mem_ctrls.num_reads::cpu10.data             83                       # Number of read requests responded to by this memory
system.mem_ctrls.num_reads::cpu11.inst             40                       # Number of read requests responded to by this memory
system.mem_ctrls.num_reads::cpu11.data             90                       # Number of read requests responded to by this memory
system.mem_ctrls.num_reads::cpu12.inst             10                       # Number of read requests responded to by this memory
system.mem_ctrls.num_reads::cpu12.data             92                       # Number of read requests responded to by this memory
system.mem_ctrls.num_reads::cpu13.inst              3                       # Number of read requests responded to by this memory
system.mem_ctrls.num_reads::cpu13.data             79                       # Number of read requests responded to by this memory
system.mem_ctrls.num_reads::cpu14.inst             41                       # Number of read requests responded to by this memory
system.mem_ctrls.num_reads::cpu14.data            102                       # Number of read requests responded to by this memory
system.mem_ctrls.num_reads::cpu15.inst             21                       # Number of read requests responded to by this memory
system.mem_ctrls.num_reads::cpu15.data             77                       # Number of read requests responded to by this memory
system.mem_ctrls.num_reads::total                9633                       # Number of read requests responded to by this memory
system.mem_ctrls.num_writes::writebacks          1085                       # Number of write requests responded to by this memory
system.mem_ctrls.num_writes::total               1085                       # Number of write requests responded to by this memory
system.mem_ctrls.bw_read::cpu00.inst         95913618                       # Total read bandwidth from this memory (bytes/s)
system.mem_ctrls.bw_read::cpu00.data        294470760                       # Total read bandwidth from this memory (bytes/s)
system.mem_ctrls.bw_read::cpu01.inst          9521570                       # Total read bandwidth from this memory (bytes/s)
system.mem_ctrls.bw_read::cpu01.data          5234371                       # Total read bandwidth from this memory (bytes/s)
system.mem_ctrls.bw_read::cpu02.inst          2043897                       # Total read bandwidth from this memory (bytes/s)
system.mem_ctrls.bw_read::cpu02.data          4287199                       # Total read bandwidth from this memory (bytes/s)
system.mem_ctrls.bw_read::cpu03.inst           797618                       # Total read bandwidth from this memory (bytes/s)
system.mem_ctrls.bw_read::cpu03.data          4785711                       # Total read bandwidth from this memory (bytes/s)
system.mem_ctrls.bw_read::cpu04.inst           199405                       # Total read bandwidth from this memory (bytes/s)
system.mem_ctrls.bw_read::cpu04.data          4287199                       # Total read bandwidth from this memory (bytes/s)
system.mem_ctrls.bw_read::cpu05.inst           149553                       # Total read bandwidth from this memory (bytes/s)
system.mem_ctrls.bw_read::cpu05.data          3938241                       # Total read bandwidth from this memory (bytes/s)
system.mem_ctrls.bw_read::cpu06.inst            49851                       # Total read bandwidth from this memory (bytes/s)
system.mem_ctrls.bw_read::cpu06.data          4237348                       # Total read bandwidth from this memory (bytes/s)
system.mem_ctrls.bw_read::cpu07.inst          1645088                       # Total read bandwidth from this memory (bytes/s)
system.mem_ctrls.bw_read::cpu07.data          5084818                       # Total read bandwidth from this memory (bytes/s)
system.mem_ctrls.bw_read::cpu08.inst          2392855                       # Total read bandwidth from this memory (bytes/s)
system.mem_ctrls.bw_read::cpu08.data          4287199                       # Total read bandwidth from this memory (bytes/s)
system.mem_ctrls.bw_read::cpu09.inst           299107                       # Total read bandwidth from this memory (bytes/s)
system.mem_ctrls.bw_read::cpu09.data          3639134                       # Total read bandwidth from this memory (bytes/s)
system.mem_ctrls.bw_read::cpu10.inst          1146577                       # Total read bandwidth from this memory (bytes/s)
system.mem_ctrls.bw_read::cpu10.data          4137646                       # Total read bandwidth from this memory (bytes/s)
system.mem_ctrls.bw_read::cpu11.inst          1994046                       # Total read bandwidth from this memory (bytes/s)
system.mem_ctrls.bw_read::cpu11.data          4486604                       # Total read bandwidth from this memory (bytes/s)
system.mem_ctrls.bw_read::cpu12.inst           498512                       # Total read bandwidth from this memory (bytes/s)
system.mem_ctrls.bw_read::cpu12.data          4586306                       # Total read bandwidth from this memory (bytes/s)
system.mem_ctrls.bw_read::cpu13.inst           149553                       # Total read bandwidth from this memory (bytes/s)
system.mem_ctrls.bw_read::cpu13.data          3938241                       # Total read bandwidth from this memory (bytes/s)
system.mem_ctrls.bw_read::cpu14.inst          2043897                       # Total read bandwidth from this memory (bytes/s)
system.mem_ctrls.bw_read::cpu14.data          5084818                       # Total read bandwidth from this memory (bytes/s)
system.mem_ctrls.bw_read::cpu15.inst          1046874                       # Total read bandwidth from this memory (bytes/s)
system.mem_ctrls.bw_read::cpu15.data          3838539                       # Total read bandwidth from this memory (bytes/s)
system.mem_ctrls.bw_read::total             480216155                       # Total read bandwidth from this memory (bytes/s)
system.mem_ctrls.bw_inst_read::cpu00.inst     95913618                       # Instruction read bandwidth from this memory (bytes/s)
system.mem_ctrls.bw_inst_read::cpu01.inst      9521570                       # Instruction read bandwidth from this memory (bytes/s)
system.mem_ctrls.bw_inst_read::cpu02.inst      2043897                       # Instruction read bandwidth from this memory (bytes/s)
system.mem_ctrls.bw_inst_read::cpu03.inst       797618                       # Instruction read bandwidth from this memory (bytes/s)
system.mem_ctrls.bw_inst_read::cpu04.inst       199405                       # Instruction read bandwidth from this memory (bytes/s)
system.mem_ctrls.bw_inst_read::cpu05.inst       149553                       # Instruction read bandwidth from this memory (bytes/s)
system.mem_ctrls.bw_inst_read::cpu06.inst        49851                       # Instruction read bandwidth from this memory (bytes/s)
system.mem_ctrls.bw_inst_read::cpu07.inst      1645088                       # Instruction read bandwidth from this memory (bytes/s)
system.mem_ctrls.bw_inst_read::cpu08.inst      2392855                       # Instruction read bandwidth from this memory (bytes/s)
system.mem_ctrls.bw_inst_read::cpu09.inst       299107                       # Instruction read bandwidth from this memory (bytes/s)
system.mem_ctrls.bw_inst_read::cpu10.inst      1146577                       # Instruction read bandwidth from this memory (bytes/s)
system.mem_ctrls.bw_inst_read::cpu11.inst      1994046                       # Instruction read bandwidth from this memory (bytes/s)
system.mem_ctrls.bw_inst_read::cpu12.inst       498512                       # Instruction read bandwidth from this memory (bytes/s)
system.mem_ctrls.bw_inst_read::cpu13.inst       149553                       # Instruction read bandwidth from this memory (bytes/s)
system.mem_ctrls.bw_inst_read::cpu14.inst      2043897                       # Instruction read bandwidth from this memory (bytes/s)
system.mem_ctrls.bw_inst_read::cpu15.inst      1046874                       # Instruction read bandwidth from this memory (bytes/s)
system.mem_ctrls.bw_inst_read::total        119892022                       # Instruction read bandwidth from this memory (bytes/s)
system.mem_ctrls.bw_write::writebacks        54088501                       # Write bandwidth from this memory (bytes/s)
system.mem_ctrls.bw_write::total             54088501                       # Write bandwidth from this memory (bytes/s)
system.mem_ctrls.bw_total::writebacks        54088501                       # Total bandwidth to/from this memory (bytes/s)
system.mem_ctrls.bw_total::cpu00.inst        95913618                       # Total bandwidth to/from this memory (bytes/s)
system.mem_ctrls.bw_total::cpu00.data       294470760                       # Total bandwidth to/from this memory (bytes/s)
system.mem_ctrls.bw_total::cpu01.inst         9521570                       # Total bandwidth to/from this memory (bytes/s)
system.mem_ctrls.bw_total::cpu01.data         5234371                       # Total bandwidth to/from this memory (bytes/s)
system.mem_ctrls.bw_total::cpu02.inst         2043897                       # Total bandwidth to/from this memory (bytes/s)
system.mem_ctrls.bw_total::cpu02.data         4287199                       # Total bandwidth to/from this memory (bytes/s)
system.mem_ctrls.bw_total::cpu03.inst          797618                       # Total bandwidth to/from this memory (bytes/s)
system.mem_ctrls.bw_total::cpu03.data         4785711                       # Total bandwidth to/from this memory (bytes/s)
system.mem_ctrls.bw_total::cpu04.inst          199405                       # Total bandwidth to/from this memory (bytes/s)
system.mem_ctrls.bw_total::cpu04.data         4287199                       # Total bandwidth to/from this memory (bytes/s)
system.mem_ctrls.bw_total::cpu05.inst          149553                       # Total bandwidth to/from this memory (bytes/s)
system.mem_ctrls.bw_total::cpu05.data         3938241                       # Total bandwidth to/from this memory (bytes/s)
system.mem_ctrls.bw_total::cpu06.inst           49851                       # Total bandwidth to/from this memory (bytes/s)
system.mem_ctrls.bw_total::cpu06.data         4237348                       # Total bandwidth to/from this memory (bytes/s)
system.mem_ctrls.bw_total::cpu07.inst         1645088                       # Total bandwidth to/from this memory (bytes/s)
system.mem_ctrls.bw_total::cpu07.data         5084818                       # Total bandwidth to/from this memory (bytes/s)
system.mem_ctrls.bw_total::cpu08.inst         2392855                       # Total bandwidth to/from this memory (bytes/s)
system.mem_ctrls.bw_total::cpu08.data         4287199                       # Total bandwidth to/from this memory (bytes/s)
system.mem_ctrls.bw_total::cpu09.inst          299107                       # Total bandwidth to/from this memory (bytes/s)
system.mem_ctrls.bw_total::cpu09.data         3639134                       # Total bandwidth to/from this memory (bytes/s)
system.mem_ctrls.bw_total::cpu10.inst         1146577                       # Total bandwidth to/from this memory (bytes/s)
system.mem_ctrls.bw_total::cpu10.data         4137646                       # Total bandwidth to/from this memory (bytes/s)
system.mem_ctrls.bw_total::cpu11.inst         1994046                       # Total bandwidth to/from this memory (bytes/s)
system.mem_ctrls.bw_total::cpu11.data         4486604                       # Total bandwidth to/from this memory (bytes/s)
system.mem_ctrls.bw_total::cpu12.inst          498512                       # Total bandwidth to/from this memory (bytes/s)
system.mem_ctrls.bw_total::cpu12.data         4586306                       # Total bandwidth to/from this memory (bytes/s)
system.mem_ctrls.bw_total::cpu13.inst          149553                       # Total bandwidth to/from this memory (bytes/s)
system.mem_ctrls.bw_total::cpu13.data         3938241                       # Total bandwidth to/from this memory (bytes/s)
system.mem_ctrls.bw_total::cpu14.inst         2043897                       # Total bandwidth to/from this memory (bytes/s)
system.mem_ctrls.bw_total::cpu14.data         5084818                       # Total bandwidth to/from this memory (bytes/s)
system.mem_ctrls.bw_total::cpu15.inst         1046874                       # Total bandwidth to/from this memory (bytes/s)
system.mem_ctrls.bw_total::cpu15.data         3838539                       # Total bandwidth to/from this memory (bytes/s)
system.mem_ctrls.bw_total::total            534304656                       # Total bandwidth to/from this memory (bytes/s)
system.cpu00.branchPred.lookups                132401                       # Number of BP lookups
system.cpu00.branchPred.condPredicted           73715                       # Number of conditional branches predicted
system.cpu00.branchPred.condIncorrect            5647                       # Number of conditional branches incorrect
system.cpu00.branchPred.BTBLookups              88841                       # Number of BTB lookups
system.cpu00.branchPred.BTBHits                 66304                       # Number of BTB hits
system.cpu00.branchPred.BTBCorrect                  0                       # Number of correct BTB predictions (this stat may not work properly.
system.cpu00.branchPred.BTBHitPct           74.632208                       # BTB Hit Percentage
system.cpu00.branchPred.usedRAS                 26437                       # Number of times the RAS was used to get a target.
system.cpu00.branchPred.RASInCorrect               79                       # Number of incorrect RAS predictions.
system.cpu00.branchPred.indirectLookups          3633                       # Number of indirect predictor lookups.
system.cpu00.branchPred.indirectHits             2887                       # Number of indirect target hits.
system.cpu00.branchPred.indirectMisses            746                       # Number of indirect misses.
system.cpu00.branchPredindirectMispredicted          253                       # Number of mispredicted indirect branches.
system.cpu_voltage_domain.voltage                   1                       # Voltage in Volts
system.cpu_clk_domain.clock                      1242                       # Clock period in ticks
system.cpu00.dtb.fetch_hits                         0                       # ITB hits
system.cpu00.dtb.fetch_misses                       0                       # ITB misses
system.cpu00.dtb.fetch_acv                          0                       # ITB acv
system.cpu00.dtb.fetch_accesses                     0                       # ITB accesses
system.cpu00.dtb.read_hits                     179591                       # DTB read hits
system.cpu00.dtb.read_misses                      629                       # DTB read misses
system.cpu00.dtb.read_acv                           0                       # DTB read access violations
system.cpu00.dtb.read_accesses                 180220                       # DTB read accesses
system.cpu00.dtb.write_hits                    127671                       # DTB write hits
system.cpu00.dtb.write_misses                    1048                       # DTB write misses
system.cpu00.dtb.write_acv                          0                       # DTB write access violations
system.cpu00.dtb.write_accesses                128719                       # DTB write accesses
system.cpu00.dtb.data_hits                     307262                       # DTB hits
system.cpu00.dtb.data_misses                     1677                       # DTB misses
system.cpu00.dtb.data_acv                           0                       # DTB access violations
system.cpu00.dtb.data_accesses                 308939                       # DTB accesses
system.cpu00.itb.fetch_hits                    148981                       # ITB hits
system.cpu00.itb.fetch_misses                     155                       # ITB misses
system.cpu00.itb.fetch_acv                          0                       # ITB acv
system.cpu00.itb.fetch_accesses                149136                       # ITB accesses
system.cpu00.itb.read_hits                          0                       # DTB read hits
system.cpu00.itb.read_misses                        0                       # DTB read misses
system.cpu00.itb.read_acv                           0                       # DTB read access violations
system.cpu00.itb.read_accesses                      0                       # DTB read accesses
system.cpu00.itb.write_hits                         0                       # DTB write hits
system.cpu00.itb.write_misses                       0                       # DTB write misses
system.cpu00.itb.write_acv                          0                       # DTB write access violations
system.cpu00.itb.write_accesses                     0                       # DTB write accesses
system.cpu00.itb.data_hits                          0                       # DTB hits
system.cpu00.itb.data_misses                        0                       # DTB misses
system.cpu00.itb.data_acv                           0                       # DTB access violations
system.cpu00.itb.data_accesses                      0                       # DTB accesses
system.cpu00.workload.num_syscalls               1594                       # Number of system calls
system.cpu00.numCycles                         972143                       # number of cpu cycles simulated
system.cpu00.numWorkItemsStarted                    0                       # number of work items this cpu started
system.cpu00.numWorkItemsCompleted                  0                       # number of work items this cpu completed
system.cpu00.fetch.icacheStallCycles            76292                       # Number of cycles fetch is stalled on an Icache miss
system.cpu00.fetch.Insts                      1188547                       # Number of instructions fetch has processed
system.cpu00.fetch.Branches                    132401                       # Number of branches that fetch encountered
system.cpu00.fetch.predictedBranches            95628                       # Number of branches that fetch has predicted taken
system.cpu00.fetch.Cycles                      692833                       # Number of cycles fetch has run and was not squashing or blocked
system.cpu00.fetch.SquashCycles                 12646                       # Number of cycles fetch has spent squashing
system.cpu00.fetch.MiscStallCycles                478                       # Number of cycles fetch has spent waiting on interrupts, or bad addresses, or out of MSHRs
system.cpu00.fetch.PendingTrapStallCycles         5917                       # Number of stall cycles due to pending traps
system.cpu00.fetch.IcacheWaitRetryStallCycles          574                       # Number of stall cycles due to full MSHR
system.cpu00.fetch.CacheLines                  148981                       # Number of cache lines fetched
system.cpu00.fetch.IcacheSquashes                2521                       # Number of outstanding Icache misses that were squashed
system.cpu00.fetch.rateDist::samples           782417                       # Number of instructions fetched each cycle (Total)
system.cpu00.fetch.rateDist::mean            1.519071                       # Number of instructions fetched each cycle (Total)
system.cpu00.fetch.rateDist::stdev           2.765199                       # Number of instructions fetched each cycle (Total)
system.cpu00.fetch.rateDist::underflows             0      0.00%      0.00% # Number of instructions fetched each cycle (Total)
system.cpu00.fetch.rateDist::0                 565103     72.23%     72.23% # Number of instructions fetched each cycle (Total)
system.cpu00.fetch.rateDist::1                  16361      2.09%     74.32% # Number of instructions fetched each cycle (Total)
system.cpu00.fetch.rateDist::2                  17321      2.21%     76.53% # Number of instructions fetched each cycle (Total)
system.cpu00.fetch.rateDist::3                  16814      2.15%     78.68% # Number of instructions fetched each cycle (Total)
system.cpu00.fetch.rateDist::4                  37911      4.85%     83.52% # Number of instructions fetched each cycle (Total)
system.cpu00.fetch.rateDist::5                  15661      2.00%     85.53% # Number of instructions fetched each cycle (Total)
system.cpu00.fetch.rateDist::6                  18751      2.40%     87.92% # Number of instructions fetched each cycle (Total)
system.cpu00.fetch.rateDist::7                  11313      1.45%     89.37% # Number of instructions fetched each cycle (Total)
system.cpu00.fetch.rateDist::8                  83182     10.63%    100.00% # Number of instructions fetched each cycle (Total)
system.cpu00.fetch.rateDist::overflows              0      0.00%    100.00% # Number of instructions fetched each cycle (Total)
system.cpu00.fetch.rateDist::min_value              0                       # Number of instructions fetched each cycle (Total)
system.cpu00.fetch.rateDist::max_value              8                       # Number of instructions fetched each cycle (Total)
system.cpu00.fetch.rateDist::total             782417                       # Number of instructions fetched each cycle (Total)
system.cpu00.fetch.branchRate                0.136195                       # Number of branch fetches per cycle
system.cpu00.fetch.rate                      1.222605                       # Number of inst fetches per cycle
system.cpu00.decode.IdleCycles                  84830                       # Number of cycles decode is idle
system.cpu00.decode.BlockedCycles              530103                       # Number of cycles decode is blocked
system.cpu00.decode.RunCycles                  130126                       # Number of cycles decode is running
system.cpu00.decode.UnblockCycles               32774                       # Number of cycles decode is unblocking
system.cpu00.decode.SquashCycles                 4584                       # Number of cycles decode is squashing
system.cpu00.decode.BranchResolved              26495                       # Number of times decode resolved a branch
system.cpu00.decode.BranchMispred                1795                       # Number of times decode detected a branch misprediction
system.cpu00.decode.DecodedInsts              1124664                       # Number of instructions handled by decode
system.cpu00.decode.SquashedInsts                7314                       # Number of squashed instructions handled by decode
system.cpu00.rename.SquashCycles                 4584                       # Number of cycles rename is squashing
system.cpu00.rename.IdleCycles                 100518                       # Number of cycles rename is idle
system.cpu00.rename.BlockCycles                 79805                       # Number of cycles rename is blocking
system.cpu00.rename.serializeStallCycles       211859                       # count of cycles rename stalled for serializing inst
system.cpu00.rename.RunCycles                  147338                       # Number of cycles rename is running
system.cpu00.rename.UnblockCycles              238313                       # Number of cycles rename is unblocking
system.cpu00.rename.RenamedInsts              1105178                       # Number of instructions processed by rename
system.cpu00.rename.ROBFullEvents                2699                       # Number of times rename has blocked due to ROB full
system.cpu00.rename.IQFullEvents                22057                       # Number of times rename has blocked due to IQ full
system.cpu00.rename.LQFullEvents                 2072                       # Number of times rename has blocked due to LQ full
system.cpu00.rename.SQFullEvents               203810                       # Number of times rename has blocked due to SQ full
system.cpu00.rename.RenamedOperands            757549                       # Number of destination operands rename has renamed
system.cpu00.rename.RenameLookups             1368535                       # Number of register rename lookups that rename has made
system.cpu00.rename.int_rename_lookups        1210502                       # Number of integer rename lookups
system.cpu00.rename.fp_rename_lookups          155746                       # Number of floating rename lookups
system.cpu00.rename.CommittedMaps              668960                       # Number of HB maps that are committed
system.cpu00.rename.UndoneMaps                  88589                       # Number of HB maps that are undone due to squashing
system.cpu00.rename.serializingInsts             4020                       # count of serializing insts renamed
system.cpu00.rename.tempSerializingInsts         1655                       # count of temporary serializing insts renamed
system.cpu00.rename.skidInsts                  145968                       # count of insts added to the skid buffer
system.cpu00.memDep0.insertedLoads             179268                       # Number of loads inserted to the mem dependence unit.
system.cpu00.memDep0.insertedStores            135250                       # Number of stores inserted to the mem dependence unit.
system.cpu00.memDep0.conflictingLoads           31944                       # Number of conflicting loads.
system.cpu00.memDep0.conflictingStores          11969                       # Number of conflicting stores.
system.cpu00.iq.iqInstsAdded                   967824                       # Number of instructions added to the IQ (excludes non-spec)
system.cpu00.iq.iqNonSpecInstsAdded              2754                       # Number of non-speculative instructions added to the IQ
system.cpu00.iq.iqInstsIssued                  950277                       # Number of instructions issued
system.cpu00.iq.iqSquashedInstsIssued            1673                       # Number of squashed instructions issued
system.cpu00.iq.iqSquashedInstsExamined        100514                       # Number of squashed instructions iterated over during squash; mainly for profiling
system.cpu00.iq.iqSquashedOperandsExamined        50609                       # Number of squashed operands that are examined and possibly removed from graph
system.cpu00.iq.iqSquashedNonSpecRemoved          378                       # Number of squashed non-spec instructions that were removed
system.cpu00.iq.issued_per_cycle::samples       782417                       # Number of insts issued each cycle
system.cpu00.iq.issued_per_cycle::mean       1.214540                       # Number of insts issued each cycle
system.cpu00.iq.issued_per_cycle::stdev      1.967324                       # Number of insts issued each cycle
system.cpu00.iq.issued_per_cycle::underflows            0      0.00%      0.00% # Number of insts issued each cycle
system.cpu00.iq.issued_per_cycle::0            486954     62.24%     62.24% # Number of insts issued each cycle
system.cpu00.iq.issued_per_cycle::1             72226      9.23%     71.47% # Number of insts issued each cycle
system.cpu00.iq.issued_per_cycle::2             60174      7.69%     79.16% # Number of insts issued each cycle
system.cpu00.iq.issued_per_cycle::3             44662      5.71%     84.87% # Number of insts issued each cycle
system.cpu00.iq.issued_per_cycle::4             43068      5.50%     90.37% # Number of insts issued each cycle
system.cpu00.iq.issued_per_cycle::5             28611      3.66%     94.03% # Number of insts issued each cycle
system.cpu00.iq.issued_per_cycle::6             26861      3.43%     97.46% # Number of insts issued each cycle
system.cpu00.iq.issued_per_cycle::7             11664      1.49%     98.95% # Number of insts issued each cycle
system.cpu00.iq.issued_per_cycle::8              8197      1.05%    100.00% # Number of insts issued each cycle
system.cpu00.iq.issued_per_cycle::overflows            0      0.00%    100.00% # Number of insts issued each cycle
system.cpu00.iq.issued_per_cycle::min_value            0                       # Number of insts issued each cycle
system.cpu00.iq.issued_per_cycle::max_value            8                       # Number of insts issued each cycle
system.cpu00.iq.issued_per_cycle::total        782417                       # Number of insts issued each cycle
system.cpu00.iq.fu_full::No_OpClass                 0      0.00%      0.00% # attempts to use FU when none available
system.cpu00.iq.fu_full::IntAlu                  4979     16.26%     16.26% # attempts to use FU when none available
system.cpu00.iq.fu_full::IntMult                 4097     13.38%     29.63% # attempts to use FU when none available
system.cpu00.iq.fu_full::IntDiv                     0      0.00%     29.63% # attempts to use FU when none available
system.cpu00.iq.fu_full::FloatAdd                  91      0.30%     29.93% # attempts to use FU when none available
system.cpu00.iq.fu_full::FloatCmp                   0      0.00%     29.93% # attempts to use FU when none available
system.cpu00.iq.fu_full::FloatCvt                   0      0.00%     29.93% # attempts to use FU when none available
system.cpu00.iq.fu_full::FloatMult               5903     19.27%     49.20% # attempts to use FU when none available
system.cpu00.iq.fu_full::FloatDiv                   0      0.00%     49.20% # attempts to use FU when none available
system.cpu00.iq.fu_full::FloatSqrt                  0      0.00%     49.20% # attempts to use FU when none available
system.cpu00.iq.fu_full::SimdAdd                    0      0.00%     49.20% # attempts to use FU when none available
system.cpu00.iq.fu_full::SimdAddAcc                 0      0.00%     49.20% # attempts to use FU when none available
system.cpu00.iq.fu_full::SimdAlu                    0      0.00%     49.20% # attempts to use FU when none available
system.cpu00.iq.fu_full::SimdCmp                    0      0.00%     49.20% # attempts to use FU when none available
system.cpu00.iq.fu_full::SimdCvt                    0      0.00%     49.20% # attempts to use FU when none available
system.cpu00.iq.fu_full::SimdMisc                   0      0.00%     49.20% # attempts to use FU when none available
system.cpu00.iq.fu_full::SimdMult                   0      0.00%     49.20% # attempts to use FU when none available
system.cpu00.iq.fu_full::SimdMultAcc                0      0.00%     49.20% # attempts to use FU when none available
system.cpu00.iq.fu_full::SimdShift                  0      0.00%     49.20% # attempts to use FU when none available
system.cpu00.iq.fu_full::SimdShiftAcc               0      0.00%     49.20% # attempts to use FU when none available
system.cpu00.iq.fu_full::SimdSqrt                   0      0.00%     49.20% # attempts to use FU when none available
system.cpu00.iq.fu_full::SimdFloatAdd               0      0.00%     49.20% # attempts to use FU when none available
system.cpu00.iq.fu_full::SimdFloatAlu               0      0.00%     49.20% # attempts to use FU when none available
system.cpu00.iq.fu_full::SimdFloatCmp               0      0.00%     49.20% # attempts to use FU when none available
system.cpu00.iq.fu_full::SimdFloatCvt               0      0.00%     49.20% # attempts to use FU when none available
system.cpu00.iq.fu_full::SimdFloatDiv               0      0.00%     49.20% # attempts to use FU when none available
system.cpu00.iq.fu_full::SimdFloatMisc              0      0.00%     49.20% # attempts to use FU when none available
system.cpu00.iq.fu_full::SimdFloatMult              0      0.00%     49.20% # attempts to use FU when none available
system.cpu00.iq.fu_full::SimdFloatMultAcc            0      0.00%     49.20% # attempts to use FU when none available
system.cpu00.iq.fu_full::SimdFloatSqrt              0      0.00%     49.20% # attempts to use FU when none available
system.cpu00.iq.fu_full::MemRead                 9522     31.09%     80.29% # attempts to use FU when none available
system.cpu00.iq.fu_full::MemWrite                6036     19.71%    100.00% # attempts to use FU when none available
system.cpu00.iq.fu_full::IprAccess                  0      0.00%    100.00% # attempts to use FU when none available
system.cpu00.iq.fu_full::InstPrefetch               0      0.00%    100.00% # attempts to use FU when none available
system.cpu00.iq.FU_type_0::No_OpClass               0      0.00%      0.00% # Type of FU issued
system.cpu00.iq.FU_type_0::IntAlu              550895     57.97%     57.97% # Type of FU issued
system.cpu00.iq.FU_type_0::IntMult              12786      1.35%     59.32% # Type of FU issued
system.cpu00.iq.FU_type_0::IntDiv                   0      0.00%     59.32% # Type of FU issued
system.cpu00.iq.FU_type_0::FloatAdd             35719      3.76%     63.08% # Type of FU issued
system.cpu00.iq.FU_type_0::FloatCmp                 8      0.00%     63.08% # Type of FU issued
system.cpu00.iq.FU_type_0::FloatCvt                 0      0.00%     63.08% # Type of FU issued
system.cpu00.iq.FU_type_0::FloatMult            37107      3.90%     66.98% # Type of FU issued
system.cpu00.iq.FU_type_0::FloatDiv                16      0.00%     66.98% # Type of FU issued
system.cpu00.iq.FU_type_0::FloatSqrt                0      0.00%     66.98% # Type of FU issued
system.cpu00.iq.FU_type_0::SimdAdd                  0      0.00%     66.98% # Type of FU issued
system.cpu00.iq.FU_type_0::SimdAddAcc               0      0.00%     66.98% # Type of FU issued
system.cpu00.iq.FU_type_0::SimdAlu                  0      0.00%     66.98% # Type of FU issued
system.cpu00.iq.FU_type_0::SimdCmp                  0      0.00%     66.98% # Type of FU issued
system.cpu00.iq.FU_type_0::SimdCvt                  0      0.00%     66.98% # Type of FU issued
system.cpu00.iq.FU_type_0::SimdMisc                 0      0.00%     66.98% # Type of FU issued
system.cpu00.iq.FU_type_0::SimdMult                 0      0.00%     66.98% # Type of FU issued
system.cpu00.iq.FU_type_0::SimdMultAcc              0      0.00%     66.98% # Type of FU issued
system.cpu00.iq.FU_type_0::SimdShift                0      0.00%     66.98% # Type of FU issued
system.cpu00.iq.FU_type_0::SimdShiftAcc             0      0.00%     66.98% # Type of FU issued
system.cpu00.iq.FU_type_0::SimdSqrt                 0      0.00%     66.98% # Type of FU issued
system.cpu00.iq.FU_type_0::SimdFloatAdd             0      0.00%     66.98% # Type of FU issued
system.cpu00.iq.FU_type_0::SimdFloatAlu             0      0.00%     66.98% # Type of FU issued
system.cpu00.iq.FU_type_0::SimdFloatCmp             0      0.00%     66.98% # Type of FU issued
system.cpu00.iq.FU_type_0::SimdFloatCvt             0      0.00%     66.98% # Type of FU issued
system.cpu00.iq.FU_type_0::SimdFloatDiv             0      0.00%     66.98% # Type of FU issued
system.cpu00.iq.FU_type_0::SimdFloatMisc            0      0.00%     66.98% # Type of FU issued
system.cpu00.iq.FU_type_0::SimdFloatMult            0      0.00%     66.98% # Type of FU issued
system.cpu00.iq.FU_type_0::SimdFloatMultAcc            0      0.00%     66.98% # Type of FU issued
system.cpu00.iq.FU_type_0::SimdFloatSqrt            0      0.00%     66.98% # Type of FU issued
system.cpu00.iq.FU_type_0::MemRead             183413     19.30%     86.28% # Type of FU issued
system.cpu00.iq.FU_type_0::MemWrite            130333     13.72%    100.00% # Type of FU issued
system.cpu00.iq.FU_type_0::IprAccess                0      0.00%    100.00% # Type of FU issued
system.cpu00.iq.FU_type_0::InstPrefetch             0      0.00%    100.00% # Type of FU issued
system.cpu00.iq.FU_type_0::total               950277                       # Type of FU issued
system.cpu00.iq.rate                         0.977507                       # Inst issue rate
system.cpu00.iq.fu_busy_cnt                     30628                       # FU busy when requested
system.cpu00.iq.fu_busy_rate                 0.032231                       # FU busy rate (busy events/executed inst)
system.cpu00.iq.int_inst_queue_reads          2471941                       # Number of integer instruction queue reads
system.cpu00.iq.int_inst_queue_writes          948212                       # Number of integer instruction queue writes
system.cpu00.iq.int_inst_queue_wakeup_accesses       813350                       # Number of integer instruction queue wakeup accesses
system.cpu00.iq.fp_inst_queue_reads            243331                       # Number of floating instruction queue reads
system.cpu00.iq.fp_inst_queue_writes           123292                       # Number of floating instruction queue writes
system.cpu00.iq.fp_inst_queue_wakeup_accesses       116951                       # Number of floating instruction queue wakeup accesses
system.cpu00.iq.int_alu_accesses               855899                       # Number of integer alu accesses
system.cpu00.iq.fp_alu_accesses                125006                       # Number of floating point alu accesses
system.cpu00.iew.lsq.thread0.forwLoads          21058                       # Number of loads that had data forwarded from stores
system.cpu00.iew.lsq.thread0.invAddrLoads            0                       # Number of loads ignored due to an invalid address
system.cpu00.iew.lsq.thread0.squashedLoads        18262                       # Number of loads squashed
system.cpu00.iew.lsq.thread0.ignoredResponses           52                       # Number of memory responses ignored because the instruction is squashed
system.cpu00.iew.lsq.thread0.memOrderViolation          419                       # Number of memory ordering violations
system.cpu00.iew.lsq.thread0.squashedStores        15723                       # Number of stores squashed
system.cpu00.iew.lsq.thread0.invAddrSwpfs            0                       # Number of software prefetches ignored due to an invalid address
system.cpu00.iew.lsq.thread0.blockedLoads            0                       # Number of blocked loads due to partial load-store forwarding
system.cpu00.iew.lsq.thread0.rescheduledLoads          224                       # Number of loads that were rescheduled
system.cpu00.iew.lsq.thread0.cacheBlocked         8536                       # Number of times an access to memory failed due to the cache being blocked
system.cpu00.iew.iewIdleCycles                      0                       # Number of cycles IEW is idle
system.cpu00.iew.iewSquashCycles                 4584                       # Number of cycles IEW is squashing
system.cpu00.iew.iewBlockCycles                 21674                       # Number of cycles IEW is blocking
system.cpu00.iew.iewUnblockCycles               51212                       # Number of cycles IEW is unblocking
system.cpu00.iew.iewDispatchedInsts           1078068                       # Number of instructions dispatched to IQ
system.cpu00.iew.iewDispSquashedInsts            1495                       # Number of squashed instructions skipped by dispatch
system.cpu00.iew.iewDispLoadInsts              179268                       # Number of dispatched load instructions
system.cpu00.iew.iewDispStoreInsts             135250                       # Number of dispatched store instructions
system.cpu00.iew.iewDispNonSpecInsts             1575                       # Number of dispatched non-speculative instructions
system.cpu00.iew.iewIQFullEvents                  102                       # Number of times the IQ has become full, causing a stall
system.cpu00.iew.iewLSQFullEvents               50994                       # Number of times the LSQ has become full, causing a stall
system.cpu00.iew.memOrderViolationEvents          419                       # Number of memory order violations
system.cpu00.iew.predictedTakenIncorrect         1537                       # Number of branches that were predicted taken incorrectly
system.cpu00.iew.predictedNotTakenIncorrect         3125                       # Number of branches that were predicted not taken incorrectly
system.cpu00.iew.branchMispredicts               4662                       # Number of branch mispredicts detected at execute
system.cpu00.iew.iewExecutedInsts              942606                       # Number of executed instructions
system.cpu00.iew.iewExecLoadInsts              180238                       # Number of load instructions executed
system.cpu00.iew.iewExecSquashedInsts            7671                       # Number of squashed instructions skipped in execute
system.cpu00.iew.exec_swp                           0                       # number of swp insts executed
system.cpu00.iew.exec_nop                      107490                       # number of nop insts executed
system.cpu00.iew.exec_refs                     308965                       # number of memory reference insts executed
system.cpu00.iew.exec_branches                 110282                       # Number of branches executed
system.cpu00.iew.exec_stores                   128727                       # Number of stores executed
system.cpu00.iew.exec_rate                   0.969617                       # Inst execution rate
system.cpu00.iew.wb_sent                       933902                       # cumulative count of insts sent to commit
system.cpu00.iew.wb_count                      930301                       # cumulative count of insts written-back
system.cpu00.iew.wb_producers                  545651                       # num instructions producing a value
system.cpu00.iew.wb_consumers                  777481                       # num instructions consuming a value
system.cpu00.iew.wb_rate                     0.956959                       # insts written-back per cycle
system.cpu00.iew.wb_fanout                   0.701819                       # average fanout of values written-back
system.cpu00.commit.commitSquashedInsts        104467                       # The number of squashed insts skipped by commit
system.cpu00.commit.commitNonSpecStalls          2376                       # The number of times commit has been forced to stall to communicate backwards
system.cpu00.commit.branchMispredicts            3908                       # The number of times a branch was mispredicted
system.cpu00.commit.committed_per_cycle::samples       766101                       # Number of insts commited each cycle
system.cpu00.commit.committed_per_cycle::mean     1.264486                       # Number of insts commited each cycle
system.cpu00.commit.committed_per_cycle::stdev     2.343991                       # Number of insts commited each cycle
system.cpu00.commit.committed_per_cycle::underflows            0      0.00%      0.00% # Number of insts commited each cycle
system.cpu00.commit.committed_per_cycle::0       517995     67.61%     67.61% # Number of insts commited each cycle
system.cpu00.commit.committed_per_cycle::1        51310      6.70%     74.31% # Number of insts commited each cycle
system.cpu00.commit.committed_per_cycle::2        51252      6.69%     81.00% # Number of insts commited each cycle
system.cpu00.commit.committed_per_cycle::3        30008      3.92%     84.92% # Number of insts commited each cycle
system.cpu00.commit.committed_per_cycle::4        35437      4.63%     89.54% # Number of insts commited each cycle
system.cpu00.commit.committed_per_cycle::5         8895      1.16%     90.71% # Number of insts commited each cycle
system.cpu00.commit.committed_per_cycle::6        12920      1.69%     92.39% # Number of insts commited each cycle
system.cpu00.commit.committed_per_cycle::7         5129      0.67%     93.06% # Number of insts commited each cycle
system.cpu00.commit.committed_per_cycle::8        53155      6.94%    100.00% # Number of insts commited each cycle
system.cpu00.commit.committed_per_cycle::overflows            0      0.00%    100.00% # Number of insts commited each cycle
system.cpu00.commit.committed_per_cycle::min_value            0                       # Number of insts commited each cycle
system.cpu00.commit.committed_per_cycle::max_value            8                       # Number of insts commited each cycle
system.cpu00.commit.committed_per_cycle::total       766101                       # Number of insts commited each cycle
system.cpu00.commit.committedInsts             968724                       # Number of instructions committed
system.cpu00.commit.committedOps               968724                       # Number of ops (including micro ops) committed
system.cpu00.commit.swp_count                       0                       # Number of s/w prefetches committed
system.cpu00.commit.refs                       280533                       # Number of memory references committed
system.cpu00.commit.loads                      161006                       # Number of loads committed
system.cpu00.commit.membars                      1038                       # Number of memory barriers committed
system.cpu00.commit.branches                   100158                       # Number of branches committed
system.cpu00.commit.fp_insts                   116058                       # Number of committed floating point instructions.
system.cpu00.commit.int_insts                  792191                       # Number of committed integer instructions.
system.cpu00.commit.function_calls              22221                       # Number of function calls committed.
system.cpu00.commit.op_class_0::No_OpClass        98661     10.18%     10.18% # Class of committed instruction
system.cpu00.commit.op_class_0::IntAlu         503365     51.96%     62.15% # Class of committed instruction
system.cpu00.commit.op_class_0::IntMult         12689      1.31%     63.46% # Class of committed instruction
system.cpu00.commit.op_class_0::IntDiv              0      0.00%     63.46% # Class of committed instruction
system.cpu00.commit.op_class_0::FloatAdd        35480      3.66%     67.12% # Class of committed instruction
system.cpu00.commit.op_class_0::FloatCmp            8      0.00%     67.12% # Class of committed instruction
system.cpu00.commit.op_class_0::FloatCvt            0      0.00%     67.12% # Class of committed instruction
system.cpu00.commit.op_class_0::FloatMult        36935      3.81%     70.93% # Class of committed instruction
system.cpu00.commit.op_class_0::FloatDiv           14      0.00%     70.93% # Class of committed instruction
system.cpu00.commit.op_class_0::FloatSqrt            0      0.00%     70.93% # Class of committed instruction
system.cpu00.commit.op_class_0::SimdAdd             0      0.00%     70.93% # Class of committed instruction
system.cpu00.commit.op_class_0::SimdAddAcc            0      0.00%     70.93% # Class of committed instruction
system.cpu00.commit.op_class_0::SimdAlu             0      0.00%     70.93% # Class of committed instruction
system.cpu00.commit.op_class_0::SimdCmp             0      0.00%     70.93% # Class of committed instruction
system.cpu00.commit.op_class_0::SimdCvt             0      0.00%     70.93% # Class of committed instruction
system.cpu00.commit.op_class_0::SimdMisc            0      0.00%     70.93% # Class of committed instruction
system.cpu00.commit.op_class_0::SimdMult            0      0.00%     70.93% # Class of committed instruction
system.cpu00.commit.op_class_0::SimdMultAcc            0      0.00%     70.93% # Class of committed instruction
system.cpu00.commit.op_class_0::SimdShift            0      0.00%     70.93% # Class of committed instruction
system.cpu00.commit.op_class_0::SimdShiftAcc            0      0.00%     70.93% # Class of committed instruction
system.cpu00.commit.op_class_0::SimdSqrt            0      0.00%     70.93% # Class of committed instruction
system.cpu00.commit.op_class_0::SimdFloatAdd            0      0.00%     70.93% # Class of committed instruction
system.cpu00.commit.op_class_0::SimdFloatAlu            0      0.00%     70.93% # Class of committed instruction
system.cpu00.commit.op_class_0::SimdFloatCmp            0      0.00%     70.93% # Class of committed instruction
system.cpu00.commit.op_class_0::SimdFloatCvt            0      0.00%     70.93% # Class of committed instruction
system.cpu00.commit.op_class_0::SimdFloatDiv            0      0.00%     70.93% # Class of committed instruction
system.cpu00.commit.op_class_0::SimdFloatMisc            0      0.00%     70.93% # Class of committed instruction
system.cpu00.commit.op_class_0::SimdFloatMult            0      0.00%     70.93% # Class of committed instruction
system.cpu00.commit.op_class_0::SimdFloatMultAcc            0      0.00%     70.93% # Class of committed instruction
system.cpu00.commit.op_class_0::SimdFloatSqrt            0      0.00%     70.93% # Class of committed instruction
system.cpu00.commit.op_class_0::MemRead        162044     16.73%     87.66% # Class of committed instruction
system.cpu00.commit.op_class_0::MemWrite       119528     12.34%    100.00% # Class of committed instruction
system.cpu00.commit.op_class_0::IprAccess            0      0.00%    100.00% # Class of committed instruction
system.cpu00.commit.op_class_0::InstPrefetch            0      0.00%    100.00% # Class of committed instruction
system.cpu00.commit.op_class_0::total          968724                       # Class of committed instruction
system.cpu00.commit.bw_lim_events               53155                       # number cycles where commit BW limit reached
system.cpu00.rob.rob_reads                    1782146                       # The number of ROB reads
system.cpu00.rob.rob_writes                   2162824                       # The number of ROB writes
system.cpu00.timesIdled                          1432                       # Number of times that the entire CPU went into an idle state and unscheduled itself
system.cpu00.idleCycles                        189726                       # Total number of cycles that the CPU has spent unscheduled due to idling
system.cpu00.quiesceCycles                      61531                       # Total number of cycles that CPU has spent quiesced or waiting for an interrupt
system.cpu00.committedInsts                    870063                       # Number of Instructions Simulated
system.cpu00.committedOps                      870063                       # Number of Ops (including micro ops) Simulated
system.cpu00.cpi                             1.117325                       # CPI: Cycles Per Instruction
system.cpu00.cpi_total                       1.117325                       # CPI: Total CPI of All Threads
system.cpu00.ipc                             0.894995                       # IPC: Instructions Per Cycle
system.cpu00.ipc_total                       0.894995                       # IPC: Total IPC of All Threads
system.cpu00.int_regfile_reads                1138721                       # number of integer regfile reads
system.cpu00.int_regfile_writes                612580                       # number of integer regfile writes
system.cpu00.fp_regfile_reads                  151787                       # number of floating regfile reads
system.cpu00.fp_regfile_writes                 102900                       # number of floating regfile writes
system.cpu00.misc_regfile_reads                  5087                       # number of misc regfile reads
system.cpu00.misc_regfile_writes                 2255                       # number of misc regfile writes
system.cpu00.dcache.tags.replacements           11270                       # number of replacements
system.cpu00.dcache.tags.tagsinuse         124.802665                       # Cycle average of tags in use
system.cpu00.dcache.tags.total_refs            229944                       # Total number of references to valid blocks.
system.cpu00.dcache.tags.sampled_refs           11398                       # Sample count of references to valid blocks.
system.cpu00.dcache.tags.avg_refs           20.174066                       # Average number of references to valid blocks.
system.cpu00.dcache.tags.warmup_cycle        85412340                       # Cycle when the warmup percentage was hit.
system.cpu00.dcache.tags.occ_blocks::cpu00.data   124.802665                       # Average occupied blocks per requestor
system.cpu00.dcache.tags.occ_percent::cpu00.data     0.975021                       # Average percentage of cache occupancy
system.cpu00.dcache.tags.occ_percent::total     0.975021                       # Average percentage of cache occupancy
system.cpu00.dcache.tags.occ_task_id_blocks::1024          128                       # Occupied blocks per task id
system.cpu00.dcache.tags.age_task_id_blocks_1024::0           57                       # Occupied blocks per task id
system.cpu00.dcache.tags.age_task_id_blocks_1024::1           62                       # Occupied blocks per task id
system.cpu00.dcache.tags.age_task_id_blocks_1024::2            9                       # Occupied blocks per task id
system.cpu00.dcache.tags.occ_task_id_percent::1024            1                       # Percentage of cache occupancy per task id
system.cpu00.dcache.tags.tag_accesses         1096560                       # Number of tag accesses
system.cpu00.dcache.tags.data_accesses        1096560                       # Number of data accesses
system.cpu00.dcache.ReadReq_hits::cpu00.data       142329                       # number of ReadReq hits
system.cpu00.dcache.ReadReq_hits::total        142329                       # number of ReadReq hits
system.cpu00.dcache.WriteReq_hits::cpu00.data        85406                       # number of WriteReq hits
system.cpu00.dcache.WriteReq_hits::total        85406                       # number of WriteReq hits
system.cpu00.dcache.LoadLockedReq_hits::cpu00.data          952                       # number of LoadLockedReq hits
system.cpu00.dcache.LoadLockedReq_hits::total          952                       # number of LoadLockedReq hits
system.cpu00.dcache.StoreCondReq_hits::cpu00.data         1101                       # number of StoreCondReq hits
system.cpu00.dcache.StoreCondReq_hits::total         1101                       # number of StoreCondReq hits
system.cpu00.dcache.demand_hits::cpu00.data       227735                       # number of demand (read+write) hits
system.cpu00.dcache.demand_hits::total         227735                       # number of demand (read+write) hits
system.cpu00.dcache.overall_hits::cpu00.data       227735                       # number of overall hits
system.cpu00.dcache.overall_hits::total        227735                       # number of overall hits
system.cpu00.dcache.ReadReq_misses::cpu00.data         8161                       # number of ReadReq misses
system.cpu00.dcache.ReadReq_misses::total         8161                       # number of ReadReq misses
system.cpu00.dcache.WriteReq_misses::cpu00.data        32997                       # number of WriteReq misses
system.cpu00.dcache.WriteReq_misses::total        32997                       # number of WriteReq misses
system.cpu00.dcache.LoadLockedReq_misses::cpu00.data          251                       # number of LoadLockedReq misses
system.cpu00.dcache.LoadLockedReq_misses::total          251                       # number of LoadLockedReq misses
system.cpu00.dcache.StoreCondReq_misses::cpu00.data           22                       # number of StoreCondReq misses
system.cpu00.dcache.StoreCondReq_misses::total           22                       # number of StoreCondReq misses
system.cpu00.dcache.demand_misses::cpu00.data        41158                       # number of demand (read+write) misses
system.cpu00.dcache.demand_misses::total        41158                       # number of demand (read+write) misses
system.cpu00.dcache.overall_misses::cpu00.data        41158                       # number of overall misses
system.cpu00.dcache.overall_misses::total        41158                       # number of overall misses
system.cpu00.dcache.ReadReq_miss_latency::cpu00.data    416187990                       # number of ReadReq miss cycles
system.cpu00.dcache.ReadReq_miss_latency::total    416187990                       # number of ReadReq miss cycles
system.cpu00.dcache.WriteReq_miss_latency::cpu00.data   5366515184                       # number of WriteReq miss cycles
system.cpu00.dcache.WriteReq_miss_latency::total   5366515184                       # number of WriteReq miss cycles
system.cpu00.dcache.LoadLockedReq_miss_latency::cpu00.data      2464128                       # number of LoadLockedReq miss cycles
system.cpu00.dcache.LoadLockedReq_miss_latency::total      2464128                       # number of LoadLockedReq miss cycles
system.cpu00.dcache.StoreCondReq_miss_latency::cpu00.data       370116                       # number of StoreCondReq miss cycles
system.cpu00.dcache.StoreCondReq_miss_latency::total       370116                       # number of StoreCondReq miss cycles
system.cpu00.dcache.demand_miss_latency::cpu00.data   5782703174                       # number of demand (read+write) miss cycles
system.cpu00.dcache.demand_miss_latency::total   5782703174                       # number of demand (read+write) miss cycles
system.cpu00.dcache.overall_miss_latency::cpu00.data   5782703174                       # number of overall miss cycles
system.cpu00.dcache.overall_miss_latency::total   5782703174                       # number of overall miss cycles
system.cpu00.dcache.ReadReq_accesses::cpu00.data       150490                       # number of ReadReq accesses(hits+misses)
system.cpu00.dcache.ReadReq_accesses::total       150490                       # number of ReadReq accesses(hits+misses)
system.cpu00.dcache.WriteReq_accesses::cpu00.data       118403                       # number of WriteReq accesses(hits+misses)
system.cpu00.dcache.WriteReq_accesses::total       118403                       # number of WriteReq accesses(hits+misses)
system.cpu00.dcache.LoadLockedReq_accesses::cpu00.data         1203                       # number of LoadLockedReq accesses(hits+misses)
system.cpu00.dcache.LoadLockedReq_accesses::total         1203                       # number of LoadLockedReq accesses(hits+misses)
system.cpu00.dcache.StoreCondReq_accesses::cpu00.data         1123                       # number of StoreCondReq accesses(hits+misses)
system.cpu00.dcache.StoreCondReq_accesses::total         1123                       # number of StoreCondReq accesses(hits+misses)
system.cpu00.dcache.demand_accesses::cpu00.data       268893                       # number of demand (read+write) accesses
system.cpu00.dcache.demand_accesses::total       268893                       # number of demand (read+write) accesses
system.cpu00.dcache.overall_accesses::cpu00.data       268893                       # number of overall (read+write) accesses
system.cpu00.dcache.overall_accesses::total       268893                       # number of overall (read+write) accesses
system.cpu00.dcache.ReadReq_miss_rate::cpu00.data     0.054230                       # miss rate for ReadReq accesses
system.cpu00.dcache.ReadReq_miss_rate::total     0.054230                       # miss rate for ReadReq accesses
system.cpu00.dcache.WriteReq_miss_rate::cpu00.data     0.278684                       # miss rate for WriteReq accesses
system.cpu00.dcache.WriteReq_miss_rate::total     0.278684                       # miss rate for WriteReq accesses
system.cpu00.dcache.LoadLockedReq_miss_rate::cpu00.data     0.208645                       # miss rate for LoadLockedReq accesses
system.cpu00.dcache.LoadLockedReq_miss_rate::total     0.208645                       # miss rate for LoadLockedReq accesses
system.cpu00.dcache.StoreCondReq_miss_rate::cpu00.data     0.019590                       # miss rate for StoreCondReq accesses
system.cpu00.dcache.StoreCondReq_miss_rate::total     0.019590                       # miss rate for StoreCondReq accesses
system.cpu00.dcache.demand_miss_rate::cpu00.data     0.153065                       # miss rate for demand accesses
system.cpu00.dcache.demand_miss_rate::total     0.153065                       # miss rate for demand accesses
system.cpu00.dcache.overall_miss_rate::cpu00.data     0.153065                       # miss rate for overall accesses
system.cpu00.dcache.overall_miss_rate::total     0.153065                       # miss rate for overall accesses
system.cpu00.dcache.ReadReq_avg_miss_latency::cpu00.data 50997.180493                       # average ReadReq miss latency
system.cpu00.dcache.ReadReq_avg_miss_latency::total 50997.180493                       # average ReadReq miss latency
system.cpu00.dcache.WriteReq_avg_miss_latency::cpu00.data 162636.457375                       # average WriteReq miss latency
system.cpu00.dcache.WriteReq_avg_miss_latency::total 162636.457375                       # average WriteReq miss latency
system.cpu00.dcache.LoadLockedReq_avg_miss_latency::cpu00.data  9817.243028                       # average LoadLockedReq miss latency
system.cpu00.dcache.LoadLockedReq_avg_miss_latency::total  9817.243028                       # average LoadLockedReq miss latency
system.cpu00.dcache.StoreCondReq_avg_miss_latency::cpu00.data 16823.454545                       # average StoreCondReq miss latency
system.cpu00.dcache.StoreCondReq_avg_miss_latency::total 16823.454545                       # average StoreCondReq miss latency
system.cpu00.dcache.demand_avg_miss_latency::cpu00.data 140500.101414                       # average overall miss latency
system.cpu00.dcache.demand_avg_miss_latency::total 140500.101414                       # average overall miss latency
system.cpu00.dcache.overall_avg_miss_latency::cpu00.data 140500.101414                       # average overall miss latency
system.cpu00.dcache.overall_avg_miss_latency::total 140500.101414                       # average overall miss latency
system.cpu00.dcache.blocked_cycles::no_mshrs       147125                       # number of cycles access was blocked
system.cpu00.dcache.blocked_cycles::no_targets            0                       # number of cycles access was blocked
system.cpu00.dcache.blocked::no_mshrs            2601                       # number of cycles access was blocked
system.cpu00.dcache.blocked::no_targets             0                       # number of cycles access was blocked
system.cpu00.dcache.avg_blocked_cycles::no_mshrs    56.564783                       # average number of cycles each access was blocked
system.cpu00.dcache.avg_blocked_cycles::no_targets          nan                       # average number of cycles each access was blocked
system.cpu00.dcache.fast_writes                     0                       # number of fast writes performed
system.cpu00.dcache.cache_copies                    0                       # number of cache copies performed
system.cpu00.dcache.writebacks::writebacks         8411                       # number of writebacks
system.cpu00.dcache.writebacks::total            8411                       # number of writebacks
system.cpu00.dcache.ReadReq_mshr_hits::cpu00.data         2777                       # number of ReadReq MSHR hits
system.cpu00.dcache.ReadReq_mshr_hits::total         2777                       # number of ReadReq MSHR hits
system.cpu00.dcache.WriteReq_mshr_hits::cpu00.data        26712                       # number of WriteReq MSHR hits
system.cpu00.dcache.WriteReq_mshr_hits::total        26712                       # number of WriteReq MSHR hits
system.cpu00.dcache.LoadLockedReq_mshr_hits::cpu00.data          144                       # number of LoadLockedReq MSHR hits
system.cpu00.dcache.LoadLockedReq_mshr_hits::total          144                       # number of LoadLockedReq MSHR hits
system.cpu00.dcache.demand_mshr_hits::cpu00.data        29489                       # number of demand (read+write) MSHR hits
system.cpu00.dcache.demand_mshr_hits::total        29489                       # number of demand (read+write) MSHR hits
system.cpu00.dcache.overall_mshr_hits::cpu00.data        29489                       # number of overall MSHR hits
system.cpu00.dcache.overall_mshr_hits::total        29489                       # number of overall MSHR hits
system.cpu00.dcache.ReadReq_mshr_misses::cpu00.data         5384                       # number of ReadReq MSHR misses
system.cpu00.dcache.ReadReq_mshr_misses::total         5384                       # number of ReadReq MSHR misses
system.cpu00.dcache.WriteReq_mshr_misses::cpu00.data         6285                       # number of WriteReq MSHR misses
system.cpu00.dcache.WriteReq_mshr_misses::total         6285                       # number of WriteReq MSHR misses
system.cpu00.dcache.LoadLockedReq_mshr_misses::cpu00.data          107                       # number of LoadLockedReq MSHR misses
system.cpu00.dcache.LoadLockedReq_mshr_misses::total          107                       # number of LoadLockedReq MSHR misses
system.cpu00.dcache.StoreCondReq_mshr_misses::cpu00.data           22                       # number of StoreCondReq MSHR misses
system.cpu00.dcache.StoreCondReq_mshr_misses::total           22                       # number of StoreCondReq MSHR misses
system.cpu00.dcache.demand_mshr_misses::cpu00.data        11669                       # number of demand (read+write) MSHR misses
system.cpu00.dcache.demand_mshr_misses::total        11669                       # number of demand (read+write) MSHR misses
system.cpu00.dcache.overall_mshr_misses::cpu00.data        11669                       # number of overall MSHR misses
system.cpu00.dcache.overall_mshr_misses::total        11669                       # number of overall MSHR misses
system.cpu00.dcache.ReadReq_mshr_miss_latency::cpu00.data    231759684                       # number of ReadReq MSHR miss cycles
system.cpu00.dcache.ReadReq_mshr_miss_latency::total    231759684                       # number of ReadReq MSHR miss cycles
system.cpu00.dcache.WriteReq_mshr_miss_latency::cpu00.data   1134684861                       # number of WriteReq MSHR miss cycles
system.cpu00.dcache.WriteReq_mshr_miss_latency::total   1134684861                       # number of WriteReq MSHR miss cycles
system.cpu00.dcache.LoadLockedReq_mshr_miss_latency::cpu00.data       919080                       # number of LoadLockedReq MSHR miss cycles
system.cpu00.dcache.LoadLockedReq_mshr_miss_latency::total       919080                       # number of LoadLockedReq MSHR miss cycles
system.cpu00.dcache.StoreCondReq_mshr_miss_latency::cpu00.data       342792                       # number of StoreCondReq MSHR miss cycles
system.cpu00.dcache.StoreCondReq_mshr_miss_latency::total       342792                       # number of StoreCondReq MSHR miss cycles
system.cpu00.dcache.demand_mshr_miss_latency::cpu00.data   1366444545                       # number of demand (read+write) MSHR miss cycles
system.cpu00.dcache.demand_mshr_miss_latency::total   1366444545                       # number of demand (read+write) MSHR miss cycles
system.cpu00.dcache.overall_mshr_miss_latency::cpu00.data   1366444545                       # number of overall MSHR miss cycles
system.cpu00.dcache.overall_mshr_miss_latency::total   1366444545                       # number of overall MSHR miss cycles
system.cpu00.dcache.ReadReq_mshr_miss_rate::cpu00.data     0.035776                       # mshr miss rate for ReadReq accesses
system.cpu00.dcache.ReadReq_mshr_miss_rate::total     0.035776                       # mshr miss rate for ReadReq accesses
system.cpu00.dcache.WriteReq_mshr_miss_rate::cpu00.data     0.053081                       # mshr miss rate for WriteReq accesses
system.cpu00.dcache.WriteReq_mshr_miss_rate::total     0.053081                       # mshr miss rate for WriteReq accesses
system.cpu00.dcache.LoadLockedReq_mshr_miss_rate::cpu00.data     0.088944                       # mshr miss rate for LoadLockedReq accesses
system.cpu00.dcache.LoadLockedReq_mshr_miss_rate::total     0.088944                       # mshr miss rate for LoadLockedReq accesses
system.cpu00.dcache.StoreCondReq_mshr_miss_rate::cpu00.data     0.019590                       # mshr miss rate for StoreCondReq accesses
system.cpu00.dcache.StoreCondReq_mshr_miss_rate::total     0.019590                       # mshr miss rate for StoreCondReq accesses
system.cpu00.dcache.demand_mshr_miss_rate::cpu00.data     0.043396                       # mshr miss rate for demand accesses
system.cpu00.dcache.demand_mshr_miss_rate::total     0.043396                       # mshr miss rate for demand accesses
system.cpu00.dcache.overall_mshr_miss_rate::cpu00.data     0.043396                       # mshr miss rate for overall accesses
system.cpu00.dcache.overall_mshr_miss_rate::total     0.043396                       # mshr miss rate for overall accesses
system.cpu00.dcache.ReadReq_avg_mshr_miss_latency::cpu00.data 43046.003715                       # average ReadReq mshr miss latency
system.cpu00.dcache.ReadReq_avg_mshr_miss_latency::total 43046.003715                       # average ReadReq mshr miss latency
system.cpu00.dcache.WriteReq_avg_mshr_miss_latency::cpu00.data 180538.561814                       # average WriteReq mshr miss latency
system.cpu00.dcache.WriteReq_avg_mshr_miss_latency::total 180538.561814                       # average WriteReq mshr miss latency
[...]
system.tol2bus.pkt_count_system.cpu06.dcache.mem_side::system.l2.cpu_side         1089                       # Packet count per connected master and slave (bytes)
system.tol2bus.pkt_count_system.cpu07.icache.mem_side::system.l2.cpu_side         2920                       # Packet count per connected master and slave (bytes)
system.tol2bus.pkt_count_system.cpu07.dcache.mem_side::system.l2.cpu_side         2501                       # Packet count per connected master and slave (bytes)
system.tol2bus.pkt_count_system.cpu08.icache.mem_side::system.l2.cpu_side         1493                       # Packet count per connected master and slave (bytes)
system.tol2bus.pkt_count_system.cpu08.dcache.mem_side::system.l2.cpu_side         1298                       # Packet count per connected master and slave (bytes)
system.tol2bus.pkt_count_system.cpu09.icache.mem_side::system.l2.cpu_side         1147                       # Packet count per connected master and slave (bytes)
system.tol2bus.pkt_count_system.cpu09.dcache.mem_side::system.l2.cpu_side         1063                       # Packet count per connected master and slave (bytes)
system.tol2bus.pkt_count_system.cpu10.icache.mem_side::system.l2.cpu_side         2534                       # Packet count per connected master and slave (bytes)
system.tol2bus.pkt_count_system.cpu10.dcache.mem_side::system.l2.cpu_side         2074                       # Packet count per connected master and slave (bytes)
system.tol2bus.pkt_count_system.cpu11.icache.mem_side::system.l2.cpu_side         2871                       # Packet count per connected master and slave (bytes)
system.tol2bus.pkt_count_system.cpu11.dcache.mem_side::system.l2.cpu_side         2681                       # Packet count per connected master and slave (bytes)
system.tol2bus.pkt_count_system.cpu12.icache.mem_side::system.l2.cpu_side         2310                       # Packet count per connected master and slave (bytes)
system.tol2bus.pkt_count_system.cpu12.dcache.mem_side::system.l2.cpu_side         2183                       # Packet count per connected master and slave (bytes)
system.tol2bus.pkt_count_system.cpu13.icache.mem_side::system.l2.cpu_side         1231                       # Packet count per connected master and slave (bytes)
system.tol2bus.pkt_count_system.cpu13.dcache.mem_side::system.l2.cpu_side         1081                       # Packet count per connected master and slave (bytes)
system.tol2bus.pkt_count_system.cpu14.icache.mem_side::system.l2.cpu_side         1576                       # Packet count per connected master and slave (bytes)
system.tol2bus.pkt_count_system.cpu14.dcache.mem_side::system.l2.cpu_side         1523                       # Packet count per connected master and slave (bytes)
system.tol2bus.pkt_count_system.cpu15.icache.mem_side::system.l2.cpu_side         1102                       # Packet count per connected master and slave (bytes)
system.tol2bus.pkt_count_system.cpu15.dcache.mem_side::system.l2.cpu_side         1169                       # Packet count per connected master and slave (bytes)
system.tol2bus.pkt_count::total                110175                       # Packet count per connected master and slave (bytes)
system.tol2bus.pkt_size_system.cpu00.icache.mem_side::system.l2.cpu_side       976384                       # Cumulative packet size per connected master and slave (bytes)
system.tol2bus.pkt_size_system.cpu00.dcache.mem_side::system.l2.cpu_side      1270464                       # Cumulative packet size per connected master and slave (bytes)
system.tol2bus.pkt_size_system.cpu01.icache.mem_side::system.l2.cpu_side       104576                       # Cumulative packet size per connected master and slave (bytes)
system.tol2bus.pkt_size_system.cpu01.dcache.mem_side::system.l2.cpu_side        45696                       # Cumulative packet size per connected master and slave (bytes)
system.tol2bus.pkt_size_system.cpu02.icache.mem_side::system.l2.cpu_side        64832                       # Cumulative packet size per connected master and slave (bytes)
system.tol2bus.pkt_size_system.cpu02.dcache.mem_side::system.l2.cpu_side        35776                       # Cumulative packet size per connected master and slave (bytes)
system.tol2bus.pkt_size_system.cpu03.icache.mem_side::system.l2.cpu_side        98368                       # Cumulative packet size per connected master and slave (bytes)
system.tol2bus.pkt_size_system.cpu03.dcache.mem_side::system.l2.cpu_side        40192                       # Cumulative packet size per connected master and slave (bytes)
system.tol2bus.pkt_size_system.cpu04.icache.mem_side::system.l2.cpu_side        35200                       # Cumulative packet size per connected master and slave (bytes)
system.tol2bus.pkt_size_system.cpu04.dcache.mem_side::system.l2.cpu_side        29056                       # Cumulative packet size per connected master and slave (bytes)
system.tol2bus.pkt_size_system.cpu05.icache.mem_side::system.l2.cpu_side        40064                       # Cumulative packet size per connected master and slave (bytes)
system.tol2bus.pkt_size_system.cpu05.dcache.mem_side::system.l2.cpu_side        24448                       # Cumulative packet size per connected master and slave (bytes)
system.tol2bus.pkt_size_system.cpu06.icache.mem_side::system.l2.cpu_side        31680                       # Cumulative packet size per connected master and slave (bytes)
system.tol2bus.pkt_size_system.cpu06.dcache.mem_side::system.l2.cpu_side        30912                       # Cumulative packet size per connected master and slave (bytes)
system.tol2bus.pkt_size_system.cpu07.icache.mem_side::system.l2.cpu_side       114112                       # Cumulative packet size per connected master and slave (bytes)
system.tol2bus.pkt_size_system.cpu07.dcache.mem_side::system.l2.cpu_side        45376                       # Cumulative packet size per connected master and slave (bytes)
system.tol2bus.pkt_size_system.cpu08.icache.mem_side::system.l2.cpu_side        54144                       # Cumulative packet size per connected master and slave (bytes)
system.tol2bus.pkt_size_system.cpu08.dcache.mem_side::system.l2.cpu_side        35008                       # Cumulative packet size per connected master and slave (bytes)
system.tol2bus.pkt_size_system.cpu09.icache.mem_side::system.l2.cpu_side        40256                       # Cumulative packet size per connected master and slave (bytes)
system.tol2bus.pkt_size_system.cpu09.dcache.mem_side::system.l2.cpu_side        27136                       # Cumulative packet size per connected master and slave (bytes)
system.tol2bus.pkt_size_system.cpu10.icache.mem_side::system.l2.cpu_side        97856                       # Cumulative packet size per connected master and slave (bytes)
system.tol2bus.pkt_size_system.cpu10.dcache.mem_side::system.l2.cpu_side        41728                       # Cumulative packet size per connected master and slave (bytes)
system.tol2bus.pkt_size_system.cpu11.icache.mem_side::system.l2.cpu_side       112576                       # Cumulative packet size per connected master and slave (bytes)
system.tol2bus.pkt_size_system.cpu11.dcache.mem_side::system.l2.cpu_side        44544                       # Cumulative packet size per connected master and slave (bytes)
system.tol2bus.pkt_size_system.cpu12.icache.mem_side::system.l2.cpu_side        88384                       # Cumulative packet size per connected master and slave (bytes)
system.tol2bus.pkt_size_system.cpu12.dcache.mem_side::system.l2.cpu_side        40768                       # Cumulative packet size per connected master and slave (bytes)
system.tol2bus.pkt_size_system.cpu13.icache.mem_side::system.l2.cpu_side        43328                       # Cumulative packet size per connected master and slave (bytes)
system.tol2bus.pkt_size_system.cpu13.dcache.mem_side::system.l2.cpu_side        26752                       # Cumulative packet size per connected master and slave (bytes)
system.tol2bus.pkt_size_system.cpu14.icache.mem_side::system.l2.cpu_side        57984                       # Cumulative packet size per connected master and slave (bytes)
system.tol2bus.pkt_size_system.cpu14.dcache.mem_side::system.l2.cpu_side        45504                       # Cumulative packet size per connected master and slave (bytes)
system.tol2bus.pkt_size_system.cpu15.icache.mem_side::system.l2.cpu_side        38464                       # Cumulative packet size per connected master and slave (bytes)
system.tol2bus.pkt_size_system.cpu15.dcache.mem_side::system.l2.cpu_side        31872                       # Cumulative packet size per connected master and slave (bytes)
system.tol2bus.pkt_size::total                3813440                       # Cumulative packet size per connected master and slave (bytes)
system.tol2bus.snoops                            7853                       # Total snoops (count)
system.tol2bus.snoop_fanout::samples            44815                       # Request fanout histogram
system.tol2bus.snoop_fanout::mean            2.312864                       # Request fanout histogram
system.tol2bus.snoop_fanout::stdev           3.909650                       # Request fanout histogram
system.tol2bus.snoop_fanout::underflows             0      0.00%      0.00% # Request fanout histogram
system.tol2bus.snoop_fanout::0                  24565     54.81%     54.81% # Request fanout histogram
system.tol2bus.snoop_fanout::1                   6663     14.87%     69.68% # Request fanout histogram
system.tol2bus.snoop_fanout::2                   2175      4.85%     74.54% # Request fanout histogram
system.tol2bus.snoop_fanout::3                   1390      3.10%     77.64% # Request fanout histogram
system.tol2bus.snoop_fanout::4                   1148      2.56%     80.20% # Request fanout histogram
system.tol2bus.snoop_fanout::5                   1081      2.41%     82.61% # Request fanout histogram
system.tol2bus.snoop_fanout::6                    978      2.18%     84.79% # Request fanout histogram
system.tol2bus.snoop_fanout::7                    877      1.96%     86.75% # Request fanout histogram
system.tol2bus.snoop_fanout::8                    858      1.91%     88.66% # Request fanout histogram
system.tol2bus.snoop_fanout::9                    850      1.90%     90.56% # Request fanout histogram
system.tol2bus.snoop_fanout::10                   829      1.85%     92.41% # Request fanout histogram
system.tol2bus.snoop_fanout::11                   717      1.60%     94.01% # Request fanout histogram
system.tol2bus.snoop_fanout::12                   773      1.72%     95.74% # Request fanout histogram
system.tol2bus.snoop_fanout::13                   722      1.61%     97.35% # Request fanout histogram
system.tol2bus.snoop_fanout::14                   726      1.62%     98.97% # Request fanout histogram
system.tol2bus.snoop_fanout::15                   461      1.03%    100.00% # Request fanout histogram
system.tol2bus.snoop_fanout::16                     2      0.00%    100.00% # Request fanout histogram
system.tol2bus.snoop_fanout::17                     0      0.00%    100.00% # Request fanout histogram
system.tol2bus.snoop_fanout::18                     0      0.00%    100.00% # Request fanout histogram
system.tol2bus.snoop_fanout::19                     0      0.00%    100.00% # Request fanout histogram
system.tol2bus.snoop_fanout::20                     0      0.00%    100.00% # Request fanout histogram
system.tol2bus.snoop_fanout::21                     0      0.00%    100.00% # Request fanout histogram
system.tol2bus.snoop_fanout::22                     0      0.00%    100.00% # Request fanout histogram
system.tol2bus.snoop_fanout::23                     0      0.00%    100.00% # Request fanout histogram
system.tol2bus.snoop_fanout::24                     0      0.00%    100.00% # Request fanout histogram
system.tol2bus.snoop_fanout::25                     0      0.00%    100.00% # Request fanout histogram
system.tol2bus.snoop_fanout::26                     0      0.00%    100.00% # Request fanout histogram
system.tol2bus.snoop_fanout::27                     0      0.00%    100.00% # Request fanout histogram
system.tol2bus.snoop_fanout::28                     0      0.00%    100.00% # Request fanout histogram
system.tol2bus.snoop_fanout::29                     0      0.00%    100.00% # Request fanout histogram
system.tol2bus.snoop_fanout::30                     0      0.00%    100.00% # Request fanout histogram
system.tol2bus.snoop_fanout::31                     0      0.00%    100.00% # Request fanout histogram
system.tol2bus.snoop_fanout::32                     0      0.00%    100.00% # Request fanout histogram
system.tol2bus.snoop_fanout::overflows              0      0.00%    100.00% # Request fanout histogram
system.tol2bus.snoop_fanout::min_value              0                       # Request fanout histogram
system.tol2bus.snoop_fanout::max_value             16                       # Request fanout histogram
system.tol2bus.snoop_fanout::total              44815                       # Request fanout histogram
system.tol2bus.reqLayer0.occupancy          149307495                       # Layer occupancy (ticks)
system.tol2bus.reqLayer0.utilization             11.6                       # Layer utilization (%)
system.tol2bus.respLayer0.occupancy          29728039                       # Layer occupancy (ticks)
system.tol2bus.respLayer0.utilization             2.3                       # Layer utilization (%)
system.tol2bus.respLayer1.occupancy          43997234                       # Layer occupancy (ticks)
system.tol2bus.respLayer1.utilization             3.4                       # Layer utilization (%)
system.tol2bus.respLayer2.occupancy           4073440                       # Layer occupancy (ticks)
system.tol2bus.respLayer2.utilization             0.3                       # Layer utilization (%)
system.tol2bus.respLayer3.occupancy           4430128                       # Layer occupancy (ticks)
system.tol2bus.respLayer3.utilization             0.3                       # Layer utilization (%)
system.tol2bus.respLayer4.occupancy           2853789                       # Layer occupancy (ticks)
system.tol2bus.respLayer4.utilization             0.2                       # Layer utilization (%)
system.tol2bus.respLayer5.occupancy           2441685                       # Layer occupancy (ticks)
system.tol2bus.respLayer5.utilization             0.2                       # Layer utilization (%)
system.tol2bus.respLayer6.occupancy           3823075                       # Layer occupancy (ticks)
system.tol2bus.respLayer6.utilization             0.3                       # Layer utilization (%)
system.tol2bus.respLayer7.occupancy           4028830                       # Layer occupancy (ticks)
system.tol2bus.respLayer7.utilization             0.3                       # Layer utilization (%)
system.tol2bus.respLayer8.occupancy           1804082                       # Layer occupancy (ticks)
system.tol2bus.respLayer8.utilization             0.1                       # Layer utilization (%)
system.tol2bus.respLayer9.occupancy           1742986                       # Layer occupancy (ticks)
system.tol2bus.respLayer9.utilization             0.1                       # Layer utilization (%)
system.tol2bus.respLayer10.occupancy          1995678                       # Layer occupancy (ticks)
system.tol2bus.respLayer10.utilization            0.2                       # Layer utilization (%)
system.tol2bus.respLayer11.occupancy          1758622                       # Layer occupancy (ticks)
system.tol2bus.respLayer11.utilization            0.1                       # Layer utilization (%)
system.tol2bus.respLayer12.occupancy          1674533                       # Layer occupancy (ticks)
system.tol2bus.respLayer12.utilization            0.1                       # Layer utilization (%)
system.tol2bus.respLayer13.occupancy          1722601                       # Layer occupancy (ticks)
system.tol2bus.respLayer13.utilization            0.1                       # Layer utilization (%)
system.tol2bus.respLayer14.occupancy          4313517                       # Layer occupancy (ticks)
system.tol2bus.respLayer14.utilization            0.3                       # Layer utilization (%)
system.tol2bus.respLayer15.occupancy          4441054                       # Layer occupancy (ticks)
system.tol2bus.respLayer15.utilization            0.3                       # Layer utilization (%)
system.tol2bus.respLayer16.occupancy          2510767                       # Layer occupancy (ticks)
system.tol2bus.respLayer16.utilization            0.2                       # Layer utilization (%)
system.tol2bus.respLayer17.occupancy          2126240                       # Layer occupancy (ticks)
system.tol2bus.respLayer17.utilization            0.2                       # Layer utilization (%)
system.tol2bus.respLayer18.occupancy          1999299                       # Layer occupancy (ticks)
system.tol2bus.respLayer18.utilization            0.2                       # Layer utilization (%)
system.tol2bus.respLayer19.occupancy          1761100                       # Layer occupancy (ticks)
system.tol2bus.respLayer19.utilization            0.1                       # Layer utilization (%)
system.tol2bus.respLayer20.occupancy          3818094                       # Layer occupancy (ticks)
system.tol2bus.respLayer20.utilization            0.3                       # Layer utilization (%)
system.tol2bus.respLayer21.occupancy          3565714                       # Layer occupancy (ticks)
system.tol2bus.respLayer21.utilization            0.3                       # Layer utilization (%)
system.tol2bus.respLayer22.occupancy          4256863                       # Layer occupancy (ticks)
system.tol2bus.respLayer22.utilization            0.3                       # Layer utilization (%)
system.tol2bus.respLayer23.occupancy          4743830                       # Layer occupancy (ticks)
system.tol2bus.respLayer23.utilization            0.4                       # Layer utilization (%)
system.tol2bus.respLayer24.occupancy          3542437                       # Layer occupancy (ticks)
system.tol2bus.respLayer24.utilization            0.3                       # Layer utilization (%)
system.tol2bus.respLayer25.occupancy          3739585                       # Layer occupancy (ticks)
system.tol2bus.respLayer25.utilization            0.3                       # Layer utilization (%)
system.tol2bus.respLayer26.occupancy          2140757                       # Layer occupancy (ticks)
system.tol2bus.respLayer26.utilization            0.2                       # Layer utilization (%)
system.tol2bus.respLayer27.occupancy          1757464                       # Layer occupancy (ticks)
system.tol2bus.respLayer27.utilization            0.1                       # Layer utilization (%)
system.tol2bus.respLayer28.occupancy          2594947                       # Layer occupancy (ticks)
system.tol2bus.respLayer28.utilization            0.2                       # Layer utilization (%)
system.tol2bus.respLayer29.occupancy          2379266                       # Layer occupancy (ticks)
system.tol2bus.respLayer29.utilization            0.2                       # Layer utilization (%)
system.tol2bus.respLayer30.occupancy          1915119                       # Layer occupancy (ticks)
system.tol2bus.respLayer30.utilization            0.1                       # Layer utilization (%)
system.tol2bus.respLayer31.occupancy          1873642                       # Layer occupancy (ticks)
system.tol2bus.respLayer31.utilization            0.1                       # Layer utilization (%)

---------- End Simulation Statistics   ----------
