
---------- Begin Simulation Statistics ----------
sim_seconds                                  0.001254                       # Number of seconds simulated
sim_ticks                                  1254181880                       # Number of ticks simulated
final_tick                                 1254181880                       # Number of ticks from beginning of simulation (restored from checkpoints and never reset)
sim_freq                                 1000000000000                       # Frequency of simulated ticks
host_inst_rate                                 228540                       # Simulator instruction rate (inst/s)
host_op_rate                                   228540                       # Simulator op (including micro ops) rate (op/s)
host_tick_rate                              141175791                       # Simulator tick rate (ticks/s)
host_mem_usage                                 694672                       # Number of bytes of host memory used
host_seconds                                     8.88                       # Real time elapsed on the host
sim_insts                                     2030304                       # Number of instructions simulated
sim_ops                                       2030304                       # Number of ops (including micro ops) simulated
system.voltage_domain.voltage                       1                       # Voltage in Volts
system.clk_domain.clock                          1000                       # Clock period in ticks
system.mem_ctrls.bytes_read::cpu00.inst        122944                       # Number of bytes read from this memory
system.mem_ctrls.bytes_read::cpu00.data        378240                       # Number of bytes read from this memory
system.mem_ctrls.bytes_read::cpu01.inst         12288                       # Number of bytes read from this memory
system.mem_ctrls.bytes_read::cpu01.data          5824                       # Number of bytes read from this memory
system.mem_ctrls.bytes_read::cpu02.inst          1216                       # Number of bytes read from this memory
system.mem_ctrls.bytes_read::cpu02.data          4480                       # Number of bytes read from this memory
system.mem_ctrls.bytes_read::cpu03.inst           640                       # Number of bytes read from this memory
system.mem_ctrls.bytes_read::cpu03.data          4736                       # Number of bytes read from this memory
system.mem_ctrls.bytes_read::cpu04.inst          3136                       # Number of bytes read from this memory
system.mem_ctrls.bytes_read::cpu04.data          6144                       # Number of bytes read from this memory
system.mem_ctrls.bytes_read::cpu05.inst           320                       # Number of bytes read from this memory
system.mem_ctrls.bytes_read::cpu05.data          5056                       # Number of bytes read from this memory
system.mem_ctrls.bytes_read::cpu06.inst           704                       # Number of bytes read from this memory
system.mem_ctrls.bytes_read::cpu06.data          6528                       # Number of bytes read from this memory
system.mem_ctrls.bytes_read::cpu07.inst           448                       # Number of bytes read from this memory
system.mem_ctrls.bytes_read::cpu07.data          5504                       # Number of bytes read from this memory
system.mem_ctrls.bytes_read::cpu08.inst          1984                       # Number of bytes read from this memory
system.mem_ctrls.bytes_read::cpu08.data          5696                       # Number of bytes read from this memory
system.mem_ctrls.bytes_read::cpu09.inst          1024                       # Number of bytes read from this memory
system.mem_ctrls.bytes_read::cpu09.data          5696                       # Number of bytes read from this memory
system.mem_ctrls.bytes_read::cpu10.inst           704                       # Number of bytes read from this memory
system.mem_ctrls.bytes_read::cpu10.data          4544                       # Number of bytes read from this memory
system.mem_ctrls.bytes_read::cpu11.inst          1152                       # Number of bytes read from this memory
system.mem_ctrls.bytes_read::cpu11.data          6464                       # Number of bytes read from this memory
system.mem_ctrls.bytes_read::cpu12.inst          1152                       # Number of bytes read from this memory
system.mem_ctrls.bytes_read::cpu12.data          6528                       # Number of bytes read from this memory
system.mem_ctrls.bytes_read::cpu13.inst          1088                       # Number of bytes read from this memory
system.mem_ctrls.bytes_read::cpu13.data          6272                       # Number of bytes read from this memory
system.mem_ctrls.bytes_read::cpu14.inst          3328                       # Number of bytes read from this memory
system.mem_ctrls.bytes_read::cpu14.data          6016                       # Number of bytes read from this memory
system.mem_ctrls.bytes_read::cpu15.inst           768                       # Number of bytes read from this memory
system.mem_ctrls.bytes_read::cpu15.data          5376                       # Number of bytes read from this memory
system.mem_ctrls.bytes_read::total             616000                       # Number of bytes read from this memory
system.mem_ctrls.bytes_inst_read::cpu00.inst       122944                       # Number of instructions bytes read from this memory
system.mem_ctrls.bytes_inst_read::cpu01.inst        12288                       # Number of instructions bytes read from this memory
system.mem_ctrls.bytes_inst_read::cpu02.inst         1216                       # Number of instructions bytes read from this memory
system.mem_ctrls.bytes_inst_read::cpu03.inst          640                       # Number of instructions bytes read from this memory
system.mem_ctrls.bytes_inst_read::cpu04.inst         3136                       # Number of instructions bytes read from this memory
system.mem_ctrls.bytes_inst_read::cpu05.inst          320                       # Number of instructions bytes read from this memory
system.mem_ctrls.bytes_inst_read::cpu06.inst          704                       # Number of instructions bytes read from this memory
system.mem_ctrls.bytes_inst_read::cpu07.inst          448                       # Number of instructions bytes read from this memory
system.mem_ctrls.bytes_inst_read::cpu08.inst         1984                       # Number of instructions bytes read from this memory
system.mem_ctrls.bytes_inst_read::cpu09.inst         1024                       # Number of instructions bytes read from this memory
system.mem_ctrls.bytes_inst_read::cpu10.inst          704                       # Number of instructions bytes read from this memory
system.mem_ctrls.bytes_inst_read::cpu11.inst         1152                       # Number of instructions bytes read from this memory
system.mem_ctrls.bytes_inst_read::cpu12.inst         1152                       # Number of instructions bytes read from this memory
system.mem_ctrls.bytes_inst_read::cpu13.inst         1088                       # Number of instructions bytes read from this memory
system.mem_ctrls.bytes_inst_read::cpu14.inst         3328                       # Number of instructions bytes read from this memory
system.mem_ctrls.bytes_inst_read::cpu15.inst          768                       # Number of instructions bytes read from this memory
system.mem_ctrls.bytes_inst_read::total        152896                       # Number of instructions bytes read from this memory
system.mem_ctrls.bytes_written::writebacks        69568                       # Number of bytes written to this memory
system.mem_ctrls.bytes_written::total           69568                       # Number of bytes written to this memory
system.mem_ctrls.num_reads::cpu00.inst           1921                       # Number of read requests responded to by this memory
system.mem_ctrls.num_reads::cpu00.data           5910                       # Number of read requests responded to by this memory
system.mem_ctrls.num_reads::cpu01.inst            192                       # Number of read requests responded to by this memory
system.mem_ctrls.num_reads::cpu01.data             91                       # Number of read requests responded to by this memory
system.mem_ctrls.num_reads::cpu02.inst             19                       # Number of read requests responded to by this memory
system.mem_ctrls.num_reads::cpu02.data             70                       # Number of read requests responded to by this memory
system.mem_ctrls.num_reads::cpu03.inst             10                       # Number of read requests responded to by this memory
system.mem_ctrls.num_reads::cpu03.data             74                       # Number of read requests responded to by this memory
system.mem_ctrls.num_reads::cpu04.inst             49                       # Number of read requests responded to by this memory
system.mem_ctrls.num_reads::cpu04.data             96                       # Number of read requests responded to by this memory
system.mem_ctrls.num_reads::cpu05.inst              5                       # Number of read requests responded to by this memory
system.mem_ctrls.num_reads::cpu05.data             79                       # Number of read requests responded to by this memory
system.mem_ctrls.num_reads::cpu06.inst             11                       # Number of read requests responded to by this memory
system.mem_ctrls.num_reads::cpu06.data            102                       # Number of read requests responded to by this memory
system.mem_ctrls.num_reads::cpu07.inst              7                       # Number of read requests responded to by this memory
system.mem_ctrls.num_reads::cpu07.data             86                       # Number of read requests responded to by this memory
system.mem_ctrls.num_reads::cpu08.inst             31                       # Number of read requests responded to by this memory
system.mem_ctrls.num_reads::cpu08.data             89                       # Number of read requests responded to by this memory
system.mem_ctrls.num_reads::cpu09.inst             16                       # Number of read requests responded to by this memory
system.mem_ctrls.num_reads::cpu09.data             89                       # Number of read requests responded to by this memory
system.mem_ctrls.num_reads::cpu10.inst             11                       # Number of read requests responded to by this memory
system.mem_ctrls.num_reads::cpu10.data             71                       # Number of read requests responded to by this memory
system.mem_ctrls.num_reads::cpu11.inst             18                       # Number of read requests responded to by this memory
system.mem_ctrls.num_reads::cpu11.data            101                       # Number of read requests responded to by this memory
system.mem_ctrls.num_reads::cpu12.inst             18                       # Number of read requests responded to by this memory
system.mem_ctrls.num_reads::cpu12.data            102                       # Number of read requests responded to by this memory
system.mem_ctrls.num_reads::cpu13.inst             17                       # Number of read requests responded to by this memory
system.mem_ctrls.num_reads::cpu13.data             98                       # Number of read requests responded to by this memory
system.mem_ctrls.num_reads::cpu14.inst             52                       # Number of read requests responded to by this memory
system.mem_ctrls.num_reads::cpu14.data             94                       # Number of read requests responded to by this memory
system.mem_ctrls.num_reads::cpu15.inst             12                       # Number of read requests responded to by this memory
system.mem_ctrls.num_reads::cpu15.data             84                       # Number of read requests responded to by this memory
system.mem_ctrls.num_reads::total                9625                       # Number of read requests responded to by this memory
system.mem_ctrls.num_writes::writebacks          1087                       # Number of write requests responded to by this memory
system.mem_ctrls.num_writes::total               1087                       # Number of write requests responded to by this memory
system.mem_ctrls.bw_read::cpu00.inst         98027249                       # Total read bandwidth from this memory (bytes/s)
system.mem_ctrls.bw_read::cpu00.data        301583053                       # Total read bandwidth from this memory (bytes/s)
system.mem_ctrls.bw_read::cpu01.inst          9797622                       # Total read bandwidth from this memory (bytes/s)
system.mem_ctrls.bw_read::cpu01.data          4643665                       # Total read bandwidth from this memory (bytes/s)
system.mem_ctrls.bw_read::cpu02.inst           969556                       # Total read bandwidth from this memory (bytes/s)
system.mem_ctrls.bw_read::cpu02.data          3572050                       # Total read bandwidth from this memory (bytes/s)
system.mem_ctrls.bw_read::cpu03.inst           510293                       # Total read bandwidth from this memory (bytes/s)
system.mem_ctrls.bw_read::cpu03.data          3776167                       # Total read bandwidth from this memory (bytes/s)
system.mem_ctrls.bw_read::cpu04.inst          2500435                       # Total read bandwidth from this memory (bytes/s)
system.mem_ctrls.bw_read::cpu04.data          4898811                       # Total read bandwidth from this memory (bytes/s)
system.mem_ctrls.bw_read::cpu05.inst           255146                       # Total read bandwidth from this memory (bytes/s)
system.mem_ctrls.bw_read::cpu05.data          4031313                       # Total read bandwidth from this memory (bytes/s)
system.mem_ctrls.bw_read::cpu06.inst           561322                       # Total read bandwidth from this memory (bytes/s)
system.mem_ctrls.bw_read::cpu06.data          5204987                       # Total read bandwidth from this memory (bytes/s)
system.mem_ctrls.bw_read::cpu07.inst           357205                       # Total read bandwidth from this memory (bytes/s)
system.mem_ctrls.bw_read::cpu07.data          4388518                       # Total read bandwidth from this memory (bytes/s)
system.mem_ctrls.bw_read::cpu08.inst          1581908                       # Total read bandwidth from this memory (bytes/s)
system.mem_ctrls.bw_read::cpu08.data          4541606                       # Total read bandwidth from this memory (bytes/s)
system.mem_ctrls.bw_read::cpu09.inst           816469                       # Total read bandwidth from this memory (bytes/s)
system.mem_ctrls.bw_read::cpu09.data          4541606                       # Total read bandwidth from this memory (bytes/s)
system.mem_ctrls.bw_read::cpu10.inst           561322                       # Total read bandwidth from this memory (bytes/s)
system.mem_ctrls.bw_read::cpu10.data          3623079                       # Total read bandwidth from this memory (bytes/s)
system.mem_ctrls.bw_read::cpu11.inst           918527                       # Total read bandwidth from this memory (bytes/s)
system.mem_ctrls.bw_read::cpu11.data          5153957                       # Total read bandwidth from this memory (bytes/s)
system.mem_ctrls.bw_read::cpu12.inst           918527                       # Total read bandwidth from this memory (bytes/s)
system.mem_ctrls.bw_read::cpu12.data          5204987                       # Total read bandwidth from this memory (bytes/s)
system.mem_ctrls.bw_read::cpu13.inst           867498                       # Total read bandwidth from this memory (bytes/s)
system.mem_ctrls.bw_read::cpu13.data          5000870                       # Total read bandwidth from this memory (bytes/s)
system.mem_ctrls.bw_read::cpu14.inst          2653523                       # Total read bandwidth from this memory (bytes/s)
system.mem_ctrls.bw_read::cpu14.data          4796752                       # Total read bandwidth from this memory (bytes/s)
system.mem_ctrls.bw_read::cpu15.inst           612351                       # Total read bandwidth from this memory (bytes/s)
system.mem_ctrls.bw_read::cpu15.data          4286460                       # Total read bandwidth from this memory (bytes/s)
system.mem_ctrls.bw_read::total             491156833                       # Total read bandwidth from this memory (bytes/s)
system.mem_ctrls.bw_inst_read::cpu00.inst     98027249                       # Instruction read bandwidth from this memory (bytes/s)
system.mem_ctrls.bw_inst_read::cpu01.inst      9797622                       # Instruction read bandwidth from this memory (bytes/s)
system.mem_ctrls.bw_inst_read::cpu02.inst       969556                       # Instruction read bandwidth from this memory (bytes/s)
system.mem_ctrls.bw_inst_read::cpu03.inst       510293                       # Instruction read bandwidth from this memory (bytes/s)
system.mem_ctrls.bw_inst_read::cpu04.inst      2500435                       # Instruction read bandwidth from this memory (bytes/s)
system.mem_ctrls.bw_inst_read::cpu05.inst       255146                       # Instruction read bandwidth from this memory (bytes/s)
system.mem_ctrls.bw_inst_read::cpu06.inst       561322                       # Instruction read bandwidth from this memory (bytes/s)
system.mem_ctrls.bw_inst_read::cpu07.inst       357205                       # Instruction read bandwidth from this memory (bytes/s)
system.mem_ctrls.bw_inst_read::cpu08.inst      1581908                       # Instruction read bandwidth from this memory (bytes/s)
system.mem_ctrls.bw_inst_read::cpu09.inst       816469                       # Instruction read bandwidth from this memory (bytes/s)
system.mem_ctrls.bw_inst_read::cpu10.inst       561322                       # Instruction read bandwidth from this memory (bytes/s)
system.mem_ctrls.bw_inst_read::cpu11.inst       918527                       # Instruction read bandwidth from this memory (bytes/s)
system.mem_ctrls.bw_inst_read::cpu12.inst       918527                       # Instruction read bandwidth from this memory (bytes/s)
system.mem_ctrls.bw_inst_read::cpu13.inst       867498                       # Instruction read bandwidth from this memory (bytes/s)
system.mem_ctrls.bw_inst_read::cpu14.inst      2653523                       # Instruction read bandwidth from this memory (bytes/s)
system.mem_ctrls.bw_inst_read::cpu15.inst       612351                       # Instruction read bandwidth from this memory (bytes/s)
system.mem_ctrls.bw_inst_read::total        121908953                       # Instruction read bandwidth from this memory (bytes/s)
system.mem_ctrls.bw_write::writebacks        55468829                       # Write bandwidth from this memory (bytes/s)
system.mem_ctrls.bw_write::total             55468829                       # Write bandwidth from this memory (bytes/s)
system.mem_ctrls.bw_total::writebacks        55468829                       # Total bandwidth to/from this memory (bytes/s)
system.mem_ctrls.bw_total::cpu00.inst        98027249                       # Total bandwidth to/from this memory (bytes/s)
system.mem_ctrls.bw_total::cpu00.data       301583053                       # Total bandwidth to/from this memory (bytes/s)
system.mem_ctrls.bw_total::cpu01.inst         9797622                       # Total bandwidth to/from this memory (bytes/s)
system.mem_ctrls.bw_total::cpu01.data         4643665                       # Total bandwidth to/from this memory (bytes/s)
system.mem_ctrls.bw_total::cpu02.inst          969556                       # Total bandwidth to/from this memory (bytes/s)
system.mem_ctrls.bw_total::cpu02.data         3572050                       # Total bandwidth to/from this memory (bytes/s)
system.mem_ctrls.bw_total::cpu03.inst          510293                       # Total bandwidth to/from this memory (bytes/s)
system.mem_ctrls.bw_total::cpu03.data         3776167                       # Total bandwidth to/from this memory (bytes/s)
system.mem_ctrls.bw_total::cpu04.inst         2500435                       # Total bandwidth to/from this memory (bytes/s)
system.mem_ctrls.bw_total::cpu04.data         4898811                       # Total bandwidth to/from this memory (bytes/s)
system.mem_ctrls.bw_total::cpu05.inst          255146                       # Total bandwidth to/from this memory (bytes/s)
system.mem_ctrls.bw_total::cpu05.data         4031313                       # Total bandwidth to/from this memory (bytes/s)
system.mem_ctrls.bw_total::cpu06.inst          561322                       # Total bandwidth to/from this memory (bytes/s)
system.mem_ctrls.bw_total::cpu06.data         5204987                       # Total bandwidth to/from this memory (bytes/s)
system.mem_ctrls.bw_total::cpu07.inst          357205                       # Total bandwidth to/from this memory (bytes/s)
system.mem_ctrls.bw_total::cpu07.data         4388518                       # Total bandwidth to/from this memory (bytes/s)
system.mem_ctrls.bw_total::cpu08.inst         1581908                       # Total bandwidth to/from this memory (bytes/s)
system.mem_ctrls.bw_total::cpu08.data         4541606                       # Total bandwidth to/from this memory (bytes/s)
system.mem_ctrls.bw_total::cpu09.inst          816469                       # Total bandwidth to/from this memory (bytes/s)
system.mem_ctrls.bw_total::cpu09.data         4541606                       # Total bandwidth to/from this memory (bytes/s)
system.mem_ctrls.bw_total::cpu10.inst          561322                       # Total bandwidth to/from this memory (bytes/s)
system.mem_ctrls.bw_total::cpu10.data         3623079                       # Total bandwidth to/from this memory (bytes/s)
system.mem_ctrls.bw_total::cpu11.inst          918527                       # Total bandwidth to/from this memory (bytes/s)
system.mem_ctrls.bw_total::cpu11.data         5153957                       # Total bandwidth to/from this memory (bytes/s)
system.mem_ctrls.bw_total::cpu12.inst          918527                       # Total bandwidth to/from this memory (bytes/s)
system.mem_ctrls.bw_total::cpu12.data         5204987                       # Total bandwidth to/from this memory (bytes/s)
system.mem_ctrls.bw_total::cpu13.inst          867498                       # Total bandwidth to/from this memory (bytes/s)
system.mem_ctrls.bw_total::cpu13.data         5000870                       # Total bandwidth to/from this memory (bytes/s)
system.mem_ctrls.bw_total::cpu14.inst         2653523                       # Total bandwidth to/from this memory (bytes/s)
system.mem_ctrls.bw_total::cpu14.data         4796752                       # Total bandwidth to/from this memory (bytes/s)
system.mem_ctrls.bw_total::cpu15.inst          612351                       # Total bandwidth to/from this memory (bytes/s)
system.mem_ctrls.bw_total::cpu15.data         4286460                       # Total bandwidth to/from this memory (bytes/s)
system.mem_ctrls.bw_total::total            546625662                       # Total bandwidth to/from this memory (bytes/s)
system.cpu00.branchPred.lookups                132137                       # Number of BP lookups
system.cpu00.branchPred.condPredicted           73506                       # Number of conditional branches predicted
system.cpu00.branchPred.condIncorrect            5644                       # Number of conditional branches incorrect
system.cpu00.branchPred.BTBLookups              89756                       # Number of BTB lookups
system.cpu00.branchPred.BTBHits                 66172                       # Number of BTB hits
system.cpu00.branchPred.BTBCorrect                  0                       # Number of correct BTB predictions (this stat may not work properly.
system.cpu00.branchPred.BTBHitPct           73.724319                       # BTB Hit Percentage
system.cpu00.branchPred.usedRAS                 26389                       # Number of times the RAS was used to get a target.
system.cpu00.branchPred.RASInCorrect               86                       # Number of incorrect RAS predictions.
system.cpu00.branchPred.indirectLookups          3653                       # Number of indirect predictor lookups.
system.cpu00.branchPred.indirectHits             2884                       # Number of indirect target hits.
system.cpu00.branchPred.indirectMisses            769                       # Number of indirect misses.
system.cpu00.branchPredindirectMispredicted          256                       # Number of mispredicted indirect branches.
system.cpu_voltage_domain.voltage                   1                       # Voltage in Volts
system.cpu_clk_domain.clock                      1180                       # Clock period in ticks
system.cpu00.dtb.fetch_hits                         0                       # ITB hits
system.cpu00.dtb.fetch_misses                       0                       # ITB misses
system.cpu00.dtb.fetch_acv                          0                       # ITB acv
system.cpu00.dtb.fetch_accesses                     0                       # ITB accesses
system.cpu00.dtb.read_hits                     180147                       # DTB read hits
system.cpu00.dtb.read_misses                      615                       # DTB read misses
system.cpu00.dtb.read_acv                           0                       # DTB read access violations
system.cpu00.dtb.read_accesses                 180762                       # DTB read accesses
system.cpu00.dtb.write_hits                    127996                       # DTB write hits
system.cpu00.dtb.write_misses                    1056                       # DTB write misses
system.cpu00.dtb.write_acv                          0                       # DTB write access violations
system.cpu00.dtb.write_accesses                129052                       # DTB write accesses
system.cpu00.dtb.data_hits                     308143                       # DTB hits
system.cpu00.dtb.data_misses                     1671                       # DTB misses
system.cpu00.dtb.data_acv                           0                       # DTB access violations
system.cpu00.dtb.data_accesses                 309814                       # DTB accesses
system.cpu00.itb.fetch_hits                    148857                       # ITB hits
system.cpu00.itb.fetch_misses                     158                       # ITB misses
system.cpu00.itb.fetch_acv                          0                       # ITB acv
system.cpu00.itb.fetch_accesses                149015                       # ITB accesses
system.cpu00.itb.read_hits                          0                       # DTB read hits
system.cpu00.itb.read_misses                        0                       # DTB read misses
system.cpu00.itb.read_acv                           0                       # DTB read access violations
system.cpu00.itb.read_accesses                      0                       # DTB read accesses
system.cpu00.itb.write_hits                         0                       # DTB write hits
system.cpu00.itb.write_misses                       0                       # DTB write misses
system.cpu00.itb.write_acv                          0                       # DTB write access violations
system.cpu00.itb.write_accesses                     0                       # DTB write accesses
system.cpu00.itb.data_hits                          0                       # DTB hits
system.cpu00.itb.data_misses                        0                       # DTB misses
system.cpu00.itb.data_acv                           0                       # DTB access violations
system.cpu00.itb.data_accesses                      0                       # DTB accesses
system.cpu00.workload.num_syscalls               1764                       # Number of system calls
system.cpu00.numCycles                        1002345                       # number of cpu cycles simulated
system.cpu00.numWorkItemsStarted                    0                       # number of work items this cpu started
system.cpu00.numWorkItemsCompleted                  0                       # number of work items this cpu completed
system.cpu00.fetch.icacheStallCycles            76528                       # Number of cycles fetch is stalled on an Icache miss
system.cpu00.fetch.Insts                      1187255                       # Number of instructions fetch has processed
system.cpu00.fetch.Branches                    132137                       # Number of branches that fetch encountered
system.cpu00.fetch.predictedBranches            95445                       # Number of branches that fetch has predicted taken
system.cpu00.fetch.Cycles                      711929                       # Number of cycles fetch has run and was not squashing or blocked
system.cpu00.fetch.SquashCycles                 12658                       # Number of cycles fetch has spent squashing
system.cpu00.fetch.MiscStallCycles                422                       # Number of cycles fetch has spent waiting on interrupts, or bad addresses, or out of MSHRs
system.cpu00.fetch.PendingTrapStallCycles         6077                       # Number of stall cycles due to pending traps
system.cpu00.fetch.IcacheWaitRetryStallCycles          568                       # Number of stall cycles due to full MSHR
system.cpu00.fetch.CacheLines                  148857                       # Number of cache lines fetched
system.cpu00.fetch.IcacheSquashes                2567                       # Number of outstanding Icache misses that were squashed
system.cpu00.fetch.rateDist::samples           801853                       # Number of instructions fetched each cycle (Total)
system.cpu00.fetch.rateDist::mean            1.480639                       # Number of instructions fetched each cycle (Total)
system.cpu00.fetch.rateDist::stdev           2.739814                       # Number of instructions fetched each cycle (Total)
system.cpu00.fetch.rateDist::underflows             0      0.00%      0.00% # Number of instructions fetched each cycle (Total)
system.cpu00.fetch.rateDist::0                 584722     72.92%     72.92% # Number of instructions fetched each cycle (Total)
system.cpu00.fetch.rateDist::1                  16290      2.03%     74.95% # Number of instructions fetched each cycle (Total)
system.cpu00.fetch.rateDist::2                  17327      2.16%     77.11% # Number of instructions fetched each cycle (Total)
system.cpu00.fetch.rateDist::3                  16847      2.10%     79.21% # Number of instructions fetched each cycle (Total)
system.cpu00.fetch.rateDist::4                  37925      4.73%     83.94% # Number of instructions fetched each cycle (Total)
system.cpu00.fetch.rateDist::5                  15663      1.95%     85.90% # Number of instructions fetched each cycle (Total)
system.cpu00.fetch.rateDist::6                  18783      2.34%     88.24% # Number of instructions fetched each cycle (Total)
system.cpu00.fetch.rateDist::7                  11311      1.41%     89.65% # Number of instructions fetched each cycle (Total)
system.cpu00.fetch.rateDist::8                  82985     10.35%    100.00% # Number of instructions fetched each cycle (Total)
system.cpu00.fetch.rateDist::overflows              0      0.00%    100.00% # Number of instructions fetched each cycle (Total)
system.cpu00.fetch.rateDist::min_value              0                       # Number of instructions fetched each cycle (Total)
system.cpu00.fetch.rateDist::max_value              8                       # Number of instructions fetched each cycle (Total)
system.cpu00.fetch.rateDist::total             801853                       # Number of instructions fetched each cycle (Total)
system.cpu00.fetch.branchRate                0.131828                       # Number of branch fetches per cycle
system.cpu00.fetch.rate                      1.184477                       # Number of inst fetches per cycle
system.cpu00.decode.IdleCycles                  84923                       # Number of cycles decode is idle
system.cpu00.decode.BlockedCycles              549862                       # Number of cycles decode is blocked
system.cpu00.decode.RunCycles                  129440                       # Number of cycles decode is running
system.cpu00.decode.UnblockCycles               33034                       # Number of cycles decode is unblocking
system.cpu00.decode.SquashCycles                 4594                       # Number of cycles decode is squashing
system.cpu00.decode.BranchResolved              26447                       # Number of times decode resolved a branch
system.cpu00.decode.BranchMispred                1790                       # Number of times decode detected a branch misprediction
system.cpu00.decode.DecodedInsts              1123458                       # Number of instructions handled by decode
system.cpu00.decode.SquashedInsts                7202                       # Number of squashed instructions handled by decode
system.cpu00.rename.SquashCycles                 4594                       # Number of cycles rename is squashing
system.cpu00.rename.IdleCycles                 100704                       # Number of cycles rename is idle
system.cpu00.rename.BlockCycles                 83442                       # Number of cycles rename is blocking
system.cpu00.rename.serializeStallCycles       216580                       # count of cycles rename stalled for serializing inst
system.cpu00.rename.RunCycles                  146833                       # Number of cycles rename is running
system.cpu00.rename.UnblockCycles              249700                       # Number of cycles rename is unblocking
system.cpu00.rename.RenamedInsts              1104272                       # Number of instructions processed by rename
system.cpu00.rename.ROBFullEvents                2861                       # Number of times rename has blocked due to ROB full
system.cpu00.rename.IQFullEvents                21924                       # Number of times rename has blocked due to IQ full
system.cpu00.rename.LQFullEvents                 2216                       # Number of times rename has blocked due to LQ full
system.cpu00.rename.SQFullEvents               214942                       # Number of times rename has blocked due to SQ full
system.cpu00.rename.RenamedOperands            757060                       # Number of destination operands rename has renamed
system.cpu00.rename.RenameLookups             1367557                       # Number of register rename lookups that rename has made
system.cpu00.rename.int_rename_lookups        1209450                       # Number of integer rename lookups
system.cpu00.rename.fp_rename_lookups          155820                       # Number of floating rename lookups
system.cpu00.rename.CommittedMaps              668746                       # Number of HB maps that are committed
system.cpu00.rename.UndoneMaps                  88314                       # Number of HB maps that are undone due to squashing
system.cpu00.rename.serializingInsts             4039                       # count of serializing insts renamed
system.cpu00.rename.tempSerializingInsts         1666                       # count of temporary serializing insts renamed
system.cpu00.rename.skidInsts                  147768                       # count of insts added to the skid buffer
system.cpu00.memDep0.insertedLoads             179224                       # Number of loads inserted to the mem dependence unit.
system.cpu00.memDep0.insertedStores            135328                       # Number of stores inserted to the mem dependence unit.
system.cpu00.memDep0.conflictingLoads           31898                       # Number of conflicting loads.
system.cpu00.memDep0.conflictingStores          11979                       # Number of conflicting stores.
system.cpu00.iq.iqInstsAdded                   967371                       # Number of instructions added to the IQ (excludes non-spec)
system.cpu00.iq.iqNonSpecInstsAdded              2748                       # Number of non-speculative instructions added to the IQ
system.cpu00.iq.iqInstsIssued                  950939                       # Number of instructions issued
system.cpu00.iq.iqSquashedInstsIssued            1563                       # Number of squashed instructions issued
system.cpu00.iq.iqSquashedInstsExamined        100355                       # Number of squashed instructions iterated over during squash; mainly for profiling
system.cpu00.iq.iqSquashedOperandsExamined        49940                       # Number of squashed operands that are examined and possibly removed from graph
system.cpu00.iq.iqSquashedNonSpecRemoved          381                       # Number of squashed non-spec instructions that were removed
system.cpu00.iq.issued_per_cycle::samples       801853                       # Number of insts issued each cycle
system.cpu00.iq.issued_per_cycle::mean       1.185927                       # Number of insts issued each cycle
system.cpu00.iq.issued_per_cycle::stdev      1.952372                       # Number of insts issued each cycle
system.cpu00.iq.issued_per_cycle::underflows            0      0.00%      0.00% # Number of insts issued each cycle
system.cpu00.iq.issued_per_cycle::0            505951     63.10%     63.10% # Number of insts issued each cycle
system.cpu00.iq.issued_per_cycle::1             72620      9.06%     72.15% # Number of insts issued each cycle
system.cpu00.iq.issued_per_cycle::2             60210      7.51%     79.66% # Number of insts issued each cycle
system.cpu00.iq.issued_per_cycle::3             44617      5.56%     85.23% # Number of insts issued each cycle
system.cpu00.iq.issued_per_cycle::4             43000      5.36%     90.59% # Number of insts issued each cycle
system.cpu00.iq.issued_per_cycle::5             28646      3.57%     94.16% # Number of insts issued each cycle
system.cpu00.iq.issued_per_cycle::6             27040      3.37%     97.53% # Number of insts issued each cycle
system.cpu00.iq.issued_per_cycle::7             11574      1.44%     98.98% # Number of insts issued each cycle
system.cpu00.iq.issued_per_cycle::8              8195      1.02%    100.00% # Number of insts issued each cycle
system.cpu00.iq.issued_per_cycle::overflows            0      0.00%    100.00% # Number of insts issued each cycle
system.cpu00.iq.issued_per_cycle::min_value            0                       # Number of insts issued each cycle
system.cpu00.iq.issued_per_cycle::max_value            8                       # Number of insts issued each cycle
system.cpu00.iq.issued_per_cycle::total        801853                       # Number of insts issued each cycle
system.cpu00.iq.fu_full::No_OpClass                 0      0.00%      0.00% # attempts to use FU when none available
system.cpu00.iq.fu_full::IntAlu                  5027     16.28%     16.28% # attempts to use FU when none available
system.cpu00.iq.fu_full::IntMult                 4097     13.27%     29.54% # attempts to use FU when none available
system.cpu00.iq.fu_full::IntDiv                     0      0.00%     29.54% # attempts to use FU when none available
system.cpu00.iq.fu_full::FloatAdd                  93      0.30%     29.84% # attempts to use FU when none available
system.cpu00.iq.fu_full::FloatCmp                   0      0.00%     29.84% # attempts to use FU when none available
system.cpu00.iq.fu_full::FloatCvt                   0      0.00%     29.84% # attempts to use FU when none available
system.cpu00.iq.fu_full::FloatMult               5906     19.12%     48.97% # attempts to use FU when none available
system.cpu00.iq.fu_full::FloatDiv                   0      0.00%     48.97% # attempts to use FU when none available
system.cpu00.iq.fu_full::FloatSqrt                  0      0.00%     48.97% # attempts to use FU when none available
system.cpu00.iq.fu_full::SimdAdd                    0      0.00%     48.97% # attempts to use FU when none available
system.cpu00.iq.fu_full::SimdAddAcc                 0      0.00%     48.97% # attempts to use FU when none available
system.cpu00.iq.fu_full::SimdAlu                    0      0.00%     48.97% # attempts to use FU when none available
system.cpu00.iq.fu_full::SimdCmp                    0      0.00%     48.97% # attempts to use FU when none available
system.cpu00.iq.fu_full::SimdCvt                    0      0.00%     48.97% # attempts to use FU when none available
system.cpu00.iq.fu_full::SimdMisc                   0      0.00%     48.97% # attempts to use FU when none available
system.cpu00.iq.fu_full::SimdMult                   0      0.00%     48.97% # attempts to use FU when none available
system.cpu00.iq.fu_full::SimdMultAcc                0      0.00%     48.97% # attempts to use FU when none available
system.cpu00.iq.fu_full::SimdShift                  0      0.00%     48.97% # attempts to use FU when none available
system.cpu00.iq.fu_full::SimdShiftAcc               0      0.00%     48.97% # attempts to use FU when none available
system.cpu00.iq.fu_full::SimdSqrt                   0      0.00%     48.97% # attempts to use FU when none available
system.cpu00.iq.fu_full::SimdFloatAdd               0      0.00%     48.97% # attempts to use FU when none available
system.cpu00.iq.fu_full::SimdFloatAlu               0      0.00%     48.97% # attempts to use FU when none available
system.cpu00.iq.fu_full::SimdFloatCmp               0      0.00%     48.97% # attempts to use FU when none available
system.cpu00.iq.fu_full::SimdFloatCvt               0      0.00%     48.97% # attempts to use FU when none available
system.cpu00.iq.fu_full::SimdFloatDiv               0      0.00%     48.97% # attempts to use FU when none available
system.cpu00.iq.fu_full::SimdFloatMisc              0      0.00%     48.97% # attempts to use FU when none available
system.cpu00.iq.fu_full::SimdFloatMult              0      0.00%     48.97% # attempts to use FU when none available
system.cpu00.iq.fu_full::SimdFloatMultAcc            0      0.00%     48.97% # attempts to use FU when none available
system.cpu00.iq.fu_full::SimdFloatSqrt              0      0.00%     48.97% # attempts to use FU when none available
system.cpu00.iq.fu_full::MemRead                 9577     31.01%     79.98% # attempts to use FU when none available
system.cpu00.iq.fu_full::MemWrite                6184     20.02%    100.00% # attempts to use FU when none available
system.cpu00.iq.fu_full::IprAccess                  0      0.00%    100.00% # attempts to use FU when none available
system.cpu00.iq.fu_full::InstPrefetch               0      0.00%    100.00% # attempts to use FU when none available
system.cpu00.iq.FU_type_0::No_OpClass               0      0.00%      0.00% # Type of FU issued
system.cpu00.iq.FU_type_0::IntAlu              550686     57.91%     57.91% # Type of FU issued
system.cpu00.iq.FU_type_0::IntMult              12788      1.34%     59.25% # Type of FU issued
system.cpu00.iq.FU_type_0::IntDiv                   0      0.00%     59.25% # Type of FU issued
system.cpu00.iq.FU_type_0::FloatAdd             35727      3.76%     63.01% # Type of FU issued
system.cpu00.iq.FU_type_0::FloatCmp                 8      0.00%     63.01% # Type of FU issued
system.cpu00.iq.FU_type_0::FloatCvt                 0      0.00%     63.01% # Type of FU issued
system.cpu00.iq.FU_type_0::FloatMult            37109      3.90%     66.91% # Type of FU issued
system.cpu00.iq.FU_type_0::FloatDiv                16      0.00%     66.92% # Type of FU issued
system.cpu00.iq.FU_type_0::FloatSqrt                0      0.00%     66.92% # Type of FU issued
system.cpu00.iq.FU_type_0::SimdAdd                  0      0.00%     66.92% # Type of FU issued
system.cpu00.iq.FU_type_0::SimdAddAcc               0      0.00%     66.92% # Type of FU issued
system.cpu00.iq.FU_type_0::SimdAlu                  0      0.00%     66.92% # Type of FU issued
system.cpu00.iq.FU_type_0::SimdCmp                  0      0.00%     66.92% # Type of FU issued
system.cpu00.iq.FU_type_0::SimdCvt                  0      0.00%     66.92% # Type of FU issued
system.cpu00.iq.FU_type_0::SimdMisc                 0      0.00%     66.92% # Type of FU issued
system.cpu00.iq.FU_type_0::SimdMult                 0      0.00%     66.92% # Type of FU issued
system.cpu00.iq.FU_type_0::SimdMultAcc              0      0.00%     66.92% # Type of FU issued
system.cpu00.iq.FU_type_0::SimdShift                0      0.00%     66.92% # Type of FU issued
system.cpu00.iq.FU_type_0::SimdShiftAcc             0      0.00%     66.92% # Type of FU issued
system.cpu00.iq.FU_type_0::SimdSqrt                 0      0.00%     66.92% # Type of FU issued
system.cpu00.iq.FU_type_0::SimdFloatAdd             0      0.00%     66.92% # Type of FU issued
system.cpu00.iq.FU_type_0::SimdFloatAlu             0      0.00%     66.92% # Type of FU issued
system.cpu00.iq.FU_type_0::SimdFloatCmp             0      0.00%     66.92% # Type of FU issued
system.cpu00.iq.FU_type_0::SimdFloatCvt             0      0.00%     66.92% # Type of FU issued
system.cpu00.iq.FU_type_0::SimdFloatDiv             0      0.00%     66.92% # Type of FU issued
system.cpu00.iq.FU_type_0::SimdFloatMisc            0      0.00%     66.92% # Type of FU issued
system.cpu00.iq.FU_type_0::SimdFloatMult            0      0.00%     66.92% # Type of FU issued
system.cpu00.iq.FU_type_0::SimdFloatMultAcc            0      0.00%     66.92% # Type of FU issued
system.cpu00.iq.FU_type_0::SimdFloatSqrt            0      0.00%     66.92% # Type of FU issued
system.cpu00.iq.FU_type_0::MemRead             184012     19.35%     86.27% # Type of FU issued
system.cpu00.iq.FU_type_0::MemWrite            130593     13.73%    100.00% # Type of FU issued
system.cpu00.iq.FU_type_0::IprAccess                0      0.00%    100.00% # Type of FU issued
system.cpu00.iq.FU_type_0::InstPrefetch             0      0.00%    100.00% # Type of FU issued
system.cpu00.iq.FU_type_0::total               950939                       # Type of FU issued
system.cpu00.iq.rate                         0.948714                       # Inst issue rate
system.cpu00.iq.fu_busy_cnt                     30884                       # FU busy when requested
system.cpu00.iq.fu_busy_rate                 0.032477                       # FU busy rate (busy events/executed inst)
system.cpu00.iq.int_inst_queue_reads          2492703                       # Number of integer instruction queue reads
system.cpu00.iq.int_inst_queue_writes          947533                       # Number of integer instruction queue writes
system.cpu00.iq.int_inst_queue_wakeup_accesses       813346                       # Number of integer instruction queue wakeup accesses
system.cpu00.iq.fp_inst_queue_reads            243475                       # Number of floating instruction queue reads
system.cpu00.iq.fp_inst_queue_writes           123356                       # Number of floating instruction queue writes
system.cpu00.iq.fp_inst_queue_wakeup_accesses       116953                       # Number of floating instruction queue wakeup accesses
system.cpu00.iq.int_alu_accesses               856756                       # Number of integer alu accesses
system.cpu00.iq.fp_alu_accesses                125067                       # Number of floating point alu accesses
system.cpu00.iew.lsq.thread0.forwLoads          21196                       # Number of loads that had data forwarded from stores
system.cpu00.iew.lsq.thread0.invAddrLoads            0                       # Number of loads ignored due to an invalid address
system.cpu00.iew.lsq.thread0.squashedLoads        18280                       # Number of loads squashed
system.cpu00.iew.lsq.thread0.ignoredResponses          121                       # Number of memory responses ignored because the instruction is squashed
system.cpu00.iew.lsq.thread0.memOrderViolation          423                       # Number of memory ordering violations
system.cpu00.iew.lsq.thread0.squashedStores        15814                       # Number of stores squashed
system.cpu00.iew.lsq.thread0.invAddrSwpfs            0                       # Number of software prefetches ignored due to an invalid address
system.cpu00.iew.lsq.thread0.blockedLoads            0                       # Number of blocked loads due to partial load-store forwarding
system.cpu00.iew.lsq.thread0.rescheduledLoads          213                       # Number of loads that were rescheduled
system.cpu00.iew.lsq.thread0.cacheBlocked         9123                       # Number of times an access to memory failed due to the cache being blocked
system.cpu00.iew.iewIdleCycles                      0                       # Number of cycles IEW is idle
system.cpu00.iew.iewSquashCycles                 4594                       # Number of cycles IEW is squashing
system.cpu00.iew.iewBlockCycles                 21487                       # Number of cycles IEW is blocking
system.cpu00.iew.iewUnblockCycles               54703                       # Number of cycles IEW is unblocking
system.cpu00.iew.iewDispatchedInsts           1077492                       # Number of instructions dispatched to IQ
system.cpu00.iew.iewDispSquashedInsts            1417                       # Number of squashed instructions skipped by dispatch
system.cpu00.iew.iewDispLoadInsts              179224                       # Number of dispatched load instructions
system.cpu00.iew.iewDispStoreInsts             135328                       # Number of dispatched store instructions
system.cpu00.iew.iewDispNonSpecInsts             1578                       # Number of dispatched non-speculative instructions
system.cpu00.iew.iewIQFullEvents                  103                       # Number of times the IQ has become full, causing a stall
system.cpu00.iew.iewLSQFullEvents               54496                       # Number of times the LSQ has become full, causing a stall
system.cpu00.iew.memOrderViolationEvents          423                       # Number of memory order violations
system.cpu00.iew.predictedTakenIncorrect         1582                       # Number of branches that were predicted taken incorrectly
system.cpu00.iew.predictedNotTakenIncorrect         3110                       # Number of branches that were predicted not taken incorrectly
system.cpu00.iew.branchMispredicts               4692                       # Number of branch mispredicts detected at execute
system.cpu00.iew.iewExecutedInsts              943330                       # Number of executed instructions
system.cpu00.iew.iewExecLoadInsts              180785                       # Number of load instructions executed
system.cpu00.iew.iewExecSquashedInsts            7609                       # Number of squashed instructions skipped in execute
system.cpu00.iew.exec_swp                           0                       # number of swp insts executed
system.cpu00.iew.exec_nop                      107373                       # number of nop insts executed
system.cpu00.iew.exec_refs                     309845                       # number of memory reference insts executed
system.cpu00.iew.exec_branches                 110237                       # Number of branches executed
system.cpu00.iew.exec_stores                   129060                       # Number of stores executed
system.cpu00.iew.exec_rate                   0.941123                       # Inst execution rate
system.cpu00.iew.wb_sent                       933841                       # cumulative count of insts sent to commit
system.cpu00.iew.wb_count                      930299                       # cumulative count of insts written-back
system.cpu00.iew.wb_producers                  545585                       # num instructions producing a value
system.cpu00.iew.wb_consumers                  777574                       # num instructions consuming a value
system.cpu00.iew.wb_rate                     0.928123                       # insts written-back per cycle
system.cpu00.iew.wb_fanout                   0.701650                       # average fanout of values written-back
system.cpu00.commit.commitSquashedInsts        104128                       # The number of squashed insts skipped by commit
system.cpu00.commit.commitNonSpecStalls          2367                       # The number of times commit has been forced to stall to communicate backwards
system.cpu00.commit.branchMispredicts            3909                       # The number of times a branch was mispredicted
system.cpu00.commit.committed_per_cycle::samples       785538                       # Number of insts commited each cycle
system.cpu00.commit.committed_per_cycle::mean     1.232739                       # Number of insts commited each cycle
system.cpu00.commit.committed_per_cycle::stdev     2.322701                       # Number of insts commited each cycle
system.cpu00.commit.committed_per_cycle::underflows            0      0.00%      0.00% # Number of insts commited each cycle
system.cpu00.commit.committed_per_cycle::0       537530     68.43%     68.43% # Number of insts commited each cycle
system.cpu00.commit.committed_per_cycle::1        51324      6.53%     74.96% # Number of insts commited each cycle
system.cpu00.commit.committed_per_cycle::2        51087      6.50%     81.47% # Number of insts commited each cycle
system.cpu00.commit.committed_per_cycle::3        30104      3.83%     85.30% # Number of insts commited each cycle
system.cpu00.commit.committed_per_cycle::4        35445      4.51%     89.81% # Number of insts commited each cycle
system.cpu00.commit.committed_per_cycle::5         8861      1.13%     90.94% # Number of insts commited each cycle
system.cpu00.commit.committed_per_cycle::6        12931      1.65%     92.58% # Number of insts commited each cycle
system.cpu00.commit.committed_per_cycle::7         5166      0.66%     93.24% # Number of insts commited each cycle
system.cpu00.commit.committed_per_cycle::8        53090      6.76%    100.00% # Number of insts commited each cycle
system.cpu00.commit.committed_per_cycle::overflows            0      0.00%    100.00% # Number of insts commited each cycle
system.cpu00.commit.committed_per_cycle::min_value            0                       # Number of insts commited each cycle
system.cpu00.commit.committed_per_cycle::max_value            8                       # Number of insts commited each cycle
system.cpu00.commit.committed_per_cycle::total       785538                       # Number of insts commited each cycle
system.cpu00.commit.committedInsts             968363                       # Number of instructions committed
system.cpu00.commit.committedOps               968363                       # Number of ops (including micro ops) committed
system.cpu00.commit.swp_count                       0                       # Number of s/w prefetches committed
system.cpu00.commit.refs                       280458                       # Number of memory references committed
system.cpu00.commit.loads                      160944                       # Number of loads committed
system.cpu00.commit.membars                      1032                       # Number of memory barriers committed
system.cpu00.commit.branches                   100080                       # Number of branches committed
system.cpu00.commit.fp_insts                   116058                       # Number of committed floating point instructions.
system.cpu00.commit.int_insts                  791897                       # Number of committed integer instructions.
system.cpu00.commit.function_calls              22213                       # Number of function calls committed.
system.cpu00.commit.op_class_0::No_OpClass        98600     10.18%     10.18% # Class of committed instruction
system.cpu00.commit.op_class_0::IntAlu         503146     51.96%     62.14% # Class of committed instruction
system.cpu00.commit.op_class_0::IntMult         12689      1.31%     63.45% # Class of committed instruction
system.cpu00.commit.op_class_0::IntDiv              0      0.00%     63.45% # Class of committed instruction
system.cpu00.commit.op_class_0::FloatAdd        35480      3.66%     67.11% # Class of committed instruction
system.cpu00.commit.op_class_0::FloatCmp            8      0.00%     67.12% # Class of committed instruction
system.cpu00.commit.op_class_0::FloatCvt            0      0.00%     67.12% # Class of committed instruction
system.cpu00.commit.op_class_0::FloatMult        36935      3.81%     70.93% # Class of committed instruction
system.cpu00.commit.op_class_0::FloatDiv           14      0.00%     70.93% # Class of committed instruction
system.cpu00.commit.op_class_0::FloatSqrt            0      0.00%     70.93% # Class of committed instruction
system.cpu00.commit.op_class_0::SimdAdd             0      0.00%     70.93% # Class of committed instruction
system.cpu00.commit.op_class_0::SimdAddAcc            0      0.00%     70.93% # Class of committed instruction
system.cpu00.commit.op_class_0::SimdAlu             0      0.00%     70.93% # Class of committed instruction
system.cpu00.commit.op_class_0::SimdCmp             0      0.00%     70.93% # Class of committed instruction
system.cpu00.commit.op_class_0::SimdCvt             0      0.00%     70.93% # Class of committed instruction
system.cpu00.commit.op_class_0::SimdMisc            0      0.00%     70.93% # Class of committed instruction
system.cpu00.commit.op_class_0::SimdMult            0      0.00%     70.93% # Class of committed instruction
system.cpu00.commit.op_class_0::SimdMultAcc            0      0.00%     70.93% # Class of committed instruction
system.cpu00.commit.op_class_0::SimdShift            0      0.00%     70.93% # Class of committed instruction
system.cpu00.commit.op_class_0::SimdShiftAcc            0      0.00%     70.93% # Class of committed instruction
system.cpu00.commit.op_class_0::SimdSqrt            0      0.00%     70.93% # Class of committed instruction
system.cpu00.commit.op_class_0::SimdFloatAdd            0      0.00%     70.93% # Class of committed instruction
system.cpu00.commit.op_class_0::SimdFloatAlu            0      0.00%     70.93% # Class of committed instruction
system.cpu00.commit.op_class_0::SimdFloatCmp            0      0.00%     70.93% # Class of committed instruction
system.cpu00.commit.op_class_0::SimdFloatCvt            0      0.00%     70.93% # Class of committed instruction
system.cpu00.commit.op_class_0::SimdFloatDiv            0      0.00%     70.93% # Class of committed instruction
system.cpu00.commit.op_class_0::SimdFloatMisc            0      0.00%     70.93% # Class of committed instruction
system.cpu00.commit.op_class_0::SimdFloatMult            0      0.00%     70.93% # Class of committed instruction
system.cpu00.commit.op_class_0::SimdFloatMultAcc            0      0.00%     70.93% # Class of committed instruction
system.cpu00.commit.op_class_0::SimdFloatSqrt            0      0.00%     70.93% # Class of committed instruction
system.cpu00.commit.op_class_0::MemRead        161976     16.73%     87.66% # Class of committed instruction
system.cpu00.commit.op_class_0::MemWrite       119515     12.34%    100.00% # Class of committed instruction
system.cpu00.commit.op_class_0::IprAccess            0      0.00%    100.00% # Class of committed instruction
system.cpu00.commit.op_class_0::InstPrefetch            0      0.00%    100.00% # Class of committed instruction
system.cpu00.commit.op_class_0::total          968363                       # Class of committed instruction
system.cpu00.commit.bw_lim_events               53090                       # number cycles where commit BW limit reached
system.cpu00.rob.rob_reads                    1800948                       # The number of ROB reads
system.cpu00.rob.rob_writes                   2161432                       # The number of ROB writes
system.cpu00.timesIdled                          1438                       # Number of times that the entire CPU went into an idle state and unscheduled itself
system.cpu00.idleCycles                        200492                       # Total number of cycles that the CPU has spent unscheduled due to idling
system.cpu00.quiesceCycles                      60522                       # Total number of cycles that CPU has spent quiesced or waiting for an interrupt
system.cpu00.committedInsts                    869763                       # Number of Instructions Simulated
system.cpu00.committedOps                      869763                       # Number of Ops (including micro ops) Simulated
system.cpu00.cpi                             1.152435                       # CPI: Cycles Per Instruction
system.cpu00.cpi_total                       1.152435                       # CPI: Total CPI of All Threads
system.cpu00.ipc                             0.867728                       # IPC: Instructions Per Cycle
system.cpu00.ipc_total                       0.867728                       # IPC: Total IPC of All Threads
system.cpu00.int_regfile_reads                1139741                       # number of integer regfile reads
system.cpu00.int_regfile_writes                612246                       # number of integer regfile writes
system.cpu00.fp_regfile_reads                  151801                       # number of floating regfile reads
system.cpu00.fp_regfile_writes                 102899                       # number of floating regfile writes
system.cpu00.misc_regfile_reads                  4961                       # number of misc regfile reads
system.cpu00.misc_regfile_writes                 2247                       # number of misc regfile writes
system.cpu00.dcache.tags.replacements           12002                       # number of replacements
system.cpu00.dcache.tags.tagsinuse         124.047964                       # Cycle average of tags in use
system.cpu00.dcache.tags.total_refs            228309                       # Total number of references to valid blocks.
system.cpu00.dcache.tags.sampled_refs           12129                       # Sample count of references to valid blocks.
system.cpu00.dcache.tags.avg_refs           18.823398                       # Average number of references to valid blocks.
system.cpu00.dcache.tags.warmup_cycle        89150180                       # Cycle when the warmup percentage was hit.
system.cpu00.dcache.tags.occ_blocks::cpu00.data   124.047964                       # Average occupied blocks per requestor
system.cpu00.dcache.tags.occ_percent::cpu00.data     0.969125                       # Average percentage of cache occupancy
system.cpu00.dcache.tags.occ_percent::total     0.969125                       # Average percentage of cache occupancy
system.cpu00.dcache.tags.occ_task_id_blocks::1024          127                       # Occupied blocks per task id
system.cpu00.dcache.tags.age_task_id_blocks_1024::0           69                       # Occupied blocks per task id
system.cpu00.dcache.tags.age_task_id_blocks_1024::1           52                       # Occupied blocks per task id
system.cpu00.dcache.tags.age_task_id_blocks_1024::2            6                       # Occupied blocks per task id
system.cpu00.dcache.tags.occ_task_id_percent::1024     0.992188                       # Percentage of cache occupancy per task id
system.cpu00.dcache.tags.tag_accesses          554442                       # Number of tag accesses
system.cpu00.dcache.tags.data_accesses         554442                       # Number of data accesses
system.cpu00.dcache.ReadReq_hits::cpu00.data       141513                       # number of ReadReq hits
system.cpu00.dcache.ReadReq_hits::total        141513                       # number of ReadReq hits
system.cpu00.dcache.WriteReq_hits::cpu00.data        84622                       # number of WriteReq hits
system.cpu00.dcache.WriteReq_hits::total        84622                       # number of WriteReq hits
system.cpu00.dcache.LoadLockedReq_hits::cpu00.data          927                       # number of LoadLockedReq hits
system.cpu00.dcache.LoadLockedReq_hits::total          927                       # number of LoadLockedReq hits
system.cpu00.dcache.StoreCondReq_hits::cpu00.data         1098                       # number of StoreCondReq hits
system.cpu00.dcache.StoreCondReq_hits::total         1098                       # number of StoreCondReq hits
system.cpu00.dcache.demand_hits::cpu00.data       226135                       # number of demand (read+write) hits
system.cpu00.dcache.demand_hits::total         226135                       # number of demand (read+write) hits
system.cpu00.dcache.overall_hits::cpu00.data       226135                       # number of overall hits
system.cpu00.dcache.overall_hits::total        226135                       # number of overall hits
system.cpu00.dcache.ReadReq_misses::cpu00.data         8813                       # number of ReadReq misses
system.cpu00.dcache.ReadReq_misses::total         8813                       # number of ReadReq misses
system.cpu00.dcache.WriteReq_misses::cpu00.data        33771                       # number of WriteReq misses
system.cpu00.dcache.WriteReq_misses::total        33771                       # number of WriteReq misses
system.cpu00.dcache.LoadLockedReq_misses::cpu00.data          275                       # number of LoadLockedReq misses
system.cpu00.dcache.LoadLockedReq_misses::total          275                       # number of LoadLockedReq misses
system.cpu00.dcache.StoreCondReq_misses::cpu00.data           23                       # number of StoreCondReq misses
system.cpu00.dcache.StoreCondReq_misses::total           23                       # number of StoreCondReq misses
system.cpu00.dcache.demand_misses::cpu00.data        42584                       # number of demand (read+write) misses
system.cpu00.dcache.demand_misses::total        42584                       # number of demand (read+write) misses
system.cpu00.dcache.overall_misses::cpu00.data        42584                       # number of overall misses
system.cpu00.dcache.overall_misses::total        42584                       # number of overall misses
system.cpu00.dcache.ReadReq_miss_latency::cpu00.data    400271340                       # number of ReadReq miss cycles
system.cpu00.dcache.ReadReq_miss_latency::total    400271340                       # number of ReadReq miss cycles
system.cpu00.dcache.WriteReq_miss_latency::cpu00.data   5360253413                       # number of WriteReq miss cycles
system.cpu00.dcache.WriteReq_miss_latency::total   5360253413                       # number of WriteReq miss cycles
system.cpu00.dcache.LoadLockedReq_miss_latency::cpu00.data      2555880                       # number of LoadLockedReq miss cycles
system.cpu00.dcache.LoadLockedReq_miss_latency::total      2555880                       # number of LoadLockedReq miss cycles
system.cpu00.dcache.StoreCondReq_miss_latency::cpu00.data       332760                       # number of StoreCondReq miss cycles
system.cpu00.dcache.StoreCondReq_miss_latency::total       332760                       # number of StoreCondReq miss cycles
system.cpu00.dcache.demand_miss_latency::cpu00.data   5760524753                       # number of demand (read+write) miss cycles
system.cpu00.dcache.demand_miss_latency::total   5760524753                       # number of demand (read+write) miss cycles
system.cpu00.dcache.overall_miss_latency::cpu00.data   5760524753                       # number of overall miss cycles
system.cpu00.dcache.overall_miss_latency::total   5760524753                       # number of overall miss cycles
system.cpu00.dcache.ReadReq_accesses::cpu00.data       150326                       # number of ReadReq accesses(hits+misses)
system.cpu00.dcache.ReadReq_accesses::total       150326                       # number of ReadReq accesses(hits+misses)
system.cpu00.dcache.WriteReq_accesses::cpu00.data       118393                       # number of WriteReq accesses(hits+misses)
system.cpu00.dcache.WriteReq_accesses::total       118393                       # number of WriteReq accesses(hits+misses)
system.cpu00.dcache.LoadLockedReq_accesses::cpu00.data         1202                       # number of LoadLockedReq accesses(hits+misses)
system.cpu00.dcache.LoadLockedReq_accesses::total         1202                       # number of LoadLockedReq accesses(hits+misses)
system.cpu00.dcache.StoreCondReq_accesses::cpu00.data         1121                       # number of StoreCondReq accesses(hits+misses)
system.cpu00.dcache.StoreCondReq_accesses::total         1121                       # number of StoreCondReq accesses(hits+misses)
system.cpu00.dcache.demand_accesses::cpu00.data       268719                       # number of demand (read+write) accesses
system.cpu00.dcache.demand_accesses::total       268719                       # number of demand (read+write) accesses
system.cpu00.dcache.overall_accesses::cpu00.data       268719                       # number of overall (read+write) accesses
system.cpu00.dcache.overall_accesses::total       268719                       # number of overall (read+write) accesses
system.cpu00.dcache.ReadReq_miss_rate::cpu00.data     0.058626                       # miss rate for ReadReq accesses
system.cpu00.dcache.ReadReq_miss_rate::total     0.058626                       # miss rate for ReadReq accesses
system.cpu00.dcache.WriteReq_miss_rate::cpu00.data     0.285245                       # miss rate for WriteReq accesses
system.cpu00.dcache.WriteReq_miss_rate::total     0.285245                       # miss rate for WriteReq accesses
system.cpu00.dcache.LoadLockedReq_miss_rate::cpu00.data     0.228785                       # miss rate for LoadLockedReq accesses
system.cpu00.dcache.LoadLockedReq_miss_rate::total     0.228785                       # miss rate for LoadLockedReq accesses
system.cpu00.dcache.StoreCondReq_miss_rate::cpu00.data     0.020517                       # miss rate for StoreCondReq accesses
system.cpu00.dcache.StoreCondReq_miss_rate::total     0.020517                       # miss rate for StoreCondReq accesses
system.cpu00.dcache.demand_miss_rate::cpu00.data     0.158470                       # miss rate for demand accesses
system.cpu00.dcache.demand_miss_rate::total     0.158470                       # miss rate for demand accesses
system.cpu00.dcache.overall_miss_rate::cpu00.data     0.158470                       # miss rate for overall accesses
system.cpu00.dcache.overall_miss_rate::total     0.158470                       # miss rate for overall accesses
system.cpu00.dcache.ReadReq_avg_miss_latency::cpu00.data 45418.284353                       # average ReadReq miss latency
system.cpu00.dcache.ReadReq_avg_miss_latency::total 45418.284353                       # average ReadReq miss latency
system.cpu00.dcache.WriteReq_avg_miss_latency::cpu00.data 158723.562021                       # average WriteReq miss latency
system.cpu00.dcache.WriteReq_avg_miss_latency::total 158723.562021                       # average WriteReq miss latency
system.cpu00.dcache.LoadLockedReq_avg_miss_latency::cpu00.data  9294.109091                       # average LoadLockedReq miss latency
system.cpu00.dcache.LoadLockedReq_avg_miss_latency::total  9294.109091                       # average LoadLockedReq miss latency
system.cpu00.dcache.StoreCondReq_avg_miss_latency::cpu00.data 14467.826087                       # average StoreCondReq miss latency
system.cpu00.dcache.StoreCondReq_avg_miss_latency::total 14467.826087                       # average StoreCondReq miss latency
system.cpu00.dcache.demand_avg_miss_latency::cpu00.data 135274.393035                       # average overall miss latency
system.cpu00.dcache.demand_avg_miss_latency::total 135274.393035                       # average overall miss latency
system.cpu00.dcache.overall_avg_miss_latency::cpu00.data 135274.393035                       # average overall miss latency
system.cpu00.dcache.overall_avg_miss_latency::total 135274.393035                       # average overall miss latency
system.cpu00.dcache.blocked_cycles::no_mshrs       154482                       # number of cycles access was blocked
system.cpu00.dcache.blocked_cycles::no_targets            0                       # number of cycles access was blocked
system.cpu00.dcache.blocked::no_mshrs            2668                       # number of cycles access was blocked
system.cpu00.dcache.blocked::no_targets             0                       # number of cycles access was blocked
system.cpu00.dcache.avg_blocked_cycles::no_mshrs    57.901799                       # average number of cycles each access was blocked
system.cpu00.dcache.avg_blocked_cycles::no_targets          nan                       # average number of cycles each access was blocked
system.cpu00.dcache.fast_writes                     0                       # number of fast writes performed
system.cpu00.dcache.cache_copies                    0                       # number of cache copies performed
system.cpu00.dcache.writebacks::writebacks         8948                       # number of writebacks
system.cpu00.dcache.writebacks::total            8948                       # number of writebacks
system.cpu00.dcache.ReadReq_mshr_hits::cpu00.data         2988                       # number of ReadReq MSHR hits
system.cpu00.dcache.ReadReq_mshr_hits::total         2988                       # number of ReadReq MSHR hits
system.cpu00.dcache.WriteReq_mshr_hits::cpu00.data        27275                       # number of WriteReq MSHR hits
system.cpu00.dcache.WriteReq_mshr_hits::total        27275                       # number of WriteReq MSHR hits
system.cpu00.dcache.LoadLockedReq_mshr_hits::cpu00.data          160                       # number of LoadLockedReq MSHR hits
system.cpu00.dcache.LoadLockedReq_mshr_hits::total          160                       # number of LoadLockedReq MSHR hits
system.cpu00.dcache.demand_mshr_hits::cpu00.data        30263                       # number of demand (read+write) MSHR hits
system.cpu00.dcache.demand_mshr_hits::total        30263                       # number of demand (read+write) MSHR hits
system.cpu00.dcache.overall_mshr_hits::cpu00.data        30263                       # number of overall MSHR hits
system.cpu00.dcache.overall_mshr_hits::total        30263                       # number of overall MSHR hits
system.cpu00.dcache.ReadReq_mshr_misses::cpu00.data         5825                       # number of ReadReq MSHR misses
system.cpu00.dcache.ReadReq_mshr_misses::total         5825                       # number of ReadReq MSHR misses
system.cpu00.dcache.WriteReq_mshr_misses::cpu00.data         6496                       # number of WriteReq MSHR misses
system.cpu00.dcache.WriteReq_mshr_misses::total         6496                       # number of WriteReq MSHR misses
system.cpu00.dcache.LoadLockedReq_mshr_misses::cpu00.data          115                       # number of LoadLockedReq MSHR misses
system.cpu00.dcache.LoadLockedReq_mshr_misses::total          115                       # number of LoadLockedReq MSHR misses
system.cpu00.dcache.StoreCondReq_mshr_misses::cpu00.data           23                       # number of StoreCondReq MSHR misses
system.cpu00.dcache.StoreCondReq_mshr_misses::total           23                       # number of StoreCondReq MSHR misses
system.cpu00.dcache.demand_mshr_misses::cpu00.data        12321                       # number of demand (read+write) MSHR misses
system.cpu00.dcache.demand_mshr_misses::total        12321                       # number of demand (read+write) MSHR misses
system.cpu00.dcache.overall_mshr_misses::cpu00.data        12321                       # number of overall MSHR misses
system.cpu00.dcache.overall_mshr_misses::total        12321                       # number of overall MSHR misses
system.cpu00.dcache.ReadReq_mshr_miss_latency::cpu00.data    231503020                       # number of ReadReq MSHR miss cycles
system.cpu00.dcache.ReadReq_mshr_miss_latency::total    231503020                       # number of ReadReq MSHR miss cycles
system.cpu00.dcache.WriteReq_mshr_miss_latency::cpu00.data   1133112599                       # number of WriteReq MSHR miss cycles
system.cpu00.dcache.WriteReq_mshr_miss_latency::total   1133112599                       # number of WriteReq MSHR miss cycles
system.cpu00.dcache.LoadLockedReq_mshr_miss_latency::cpu00.data       938100                       # number of LoadLockedReq MSHR miss cycles
system.cpu00.dcache.LoadLockedReq_mshr_miss_latency::total       938100                       # number of LoadLockedReq MSHR miss cycles
system.cpu00.dcache.StoreCondReq_mshr_miss_latency::cpu00.data       305620                       # number of StoreCondReq MSHR miss cycles
system.cpu00.dcache.StoreCondReq_mshr_miss_latency::total       305620                       # number of StoreCondReq MSHR miss cycles
system.cpu00.dcache.demand_mshr_miss_latency::cpu00.data   1364615619                       # number of demand (read+write) MSHR miss cycles
system.cpu00.dcache.demand_mshr_miss_latency::total   1364615619                       # number of demand (read+write) MSHR miss cycles
system.cpu00.dcache.overall_mshr_miss_latency::cpu00.data   1364615619                       # number of overall MSHR miss cycles
system.cpu00.dcache.overall_mshr_miss_latency::total   1364615619                       # number of overall MSHR miss cycles
system.cpu00.dcache.ReadReq_mshr_miss_rate::cpu00.data     0.038749                       # mshr miss rate for ReadReq accesses
system.cpu00.dcache.ReadReq_mshr_miss_rate::total     0.038749                       # mshr miss rate for ReadReq accesses
system.cpu00.dcache.WriteReq_mshr_miss_rate::cpu00.data     0.054868                       # mshr miss rate for WriteReq accesses
system.cpu00.dcache.WriteReq_mshr_miss_rate::total     0.054868                       # mshr miss rate for WriteReq accesses
system.cpu00.dcache.LoadLockedReq_mshr_miss_rate::cpu00.data     0.095674                       # mshr miss rate for LoadLockedReq accesses
system.cpu00.dcache.LoadLockedReq_mshr_miss_rate::total     0.095674                       # mshr miss rate for LoadLockedReq accesses
system.cpu00.dcache.StoreCondReq_mshr_miss_rate::cpu00.data     0.020517                       # mshr miss rate for StoreCondReq accesses
system.cpu00.dcache.StoreCondReq_mshr_miss_rate::total     0.020517                       # mshr miss rate for StoreCondReq accesses
system.cpu00.dcache.demand_mshr_miss_rate::cpu00.data     0.045851                       # mshr miss rate for demand accesses
system.cpu00.dcache.demand_mshr_miss_rate::total     0.045851                       # mshr miss rate for demand accesses
system.cpu00.dcache.overall_mshr_miss_rate::cpu00.data     0.045851                       # mshr miss rate for overall accesses
system.cpu00.dcache.overall_mshr_miss_rate::total     0.045851                       # mshr miss rate for overall accesses
system.cpu00.dcache.ReadReq_avg_mshr_miss_latency::cpu00.data 39743.007725                       # average ReadReq mshr miss latency
system.cpu00.dcache.ReadReq_avg_mshr_miss_latency::total 39743.007725                       # average ReadReq mshr miss latency
system.cpu00.dcache.WriteReq_avg_mshr_miss_latency::cpu00.data 174432.358220                       # average WriteReq mshr miss latency
system.cpu00.dcache.WriteReq_avg_mshr_miss_latency::total 174432.358220                       # average WriteReq mshr miss latency
[...]
system.tol2bus.pkt_count_system.cpu06.dcache.mem_side::system.l2.cpu_side         2338                       # Packet count per connected master and slave (bytes)
system.tol2bus.pkt_count_system.cpu07.icache.mem_side::system.l2.cpu_side         1460                       # Packet count per connected master and slave (bytes)
system.tol2bus.pkt_count_system.cpu07.dcache.mem_side::system.l2.cpu_side         1567                       # Packet count per connected master and slave (bytes)
system.tol2bus.pkt_count_system.cpu08.icache.mem_side::system.l2.cpu_side         1942                       # Packet count per connected master and slave (bytes)
system.tol2bus.pkt_count_system.cpu08.dcache.mem_side::system.l2.cpu_side         1883                       # Packet count per connected master and slave (bytes)
system.tol2bus.pkt_count_system.cpu09.icache.mem_side::system.l2.cpu_side         1800                       # Packet count per connected master and slave (bytes)
system.tol2bus.pkt_count_system.cpu09.dcache.mem_side::system.l2.cpu_side         1915                       # Packet count per connected master and slave (bytes)
system.tol2bus.pkt_count_system.cpu10.icache.mem_side::system.l2.cpu_side         1244                       # Packet count per connected master and slave (bytes)
system.tol2bus.pkt_count_system.cpu10.dcache.mem_side::system.l2.cpu_side         1180                       # Packet count per connected master and slave (bytes)
system.tol2bus.pkt_count_system.cpu11.icache.mem_side::system.l2.cpu_side         2669                       # Packet count per connected master and slave (bytes)
system.tol2bus.pkt_count_system.cpu11.dcache.mem_side::system.l2.cpu_side         3107                       # Packet count per connected master and slave (bytes)
system.tol2bus.pkt_count_system.cpu12.icache.mem_side::system.l2.cpu_side         2736                       # Packet count per connected master and slave (bytes)
system.tol2bus.pkt_count_system.cpu12.dcache.mem_side::system.l2.cpu_side         2603                       # Packet count per connected master and slave (bytes)
system.tol2bus.pkt_count_system.cpu13.icache.mem_side::system.l2.cpu_side         2565                       # Packet count per connected master and slave (bytes)
system.tol2bus.pkt_count_system.cpu13.dcache.mem_side::system.l2.cpu_side         2355                       # Packet count per connected master and slave (bytes)
system.tol2bus.pkt_count_system.cpu14.icache.mem_side::system.l2.cpu_side         3074                       # Packet count per connected master and slave (bytes)
system.tol2bus.pkt_count_system.cpu14.dcache.mem_side::system.l2.cpu_side         2931                       # Packet count per connected master and slave (bytes)
system.tol2bus.pkt_count_system.cpu15.icache.mem_side::system.l2.cpu_side         2928                       # Packet count per connected master and slave (bytes)
system.tol2bus.pkt_count_system.cpu15.dcache.mem_side::system.l2.cpu_side         3445                       # Packet count per connected master and slave (bytes)
system.tol2bus.pkt_count::total                118781                       # Packet count per connected master and slave (bytes)
system.tol2bus.pkt_size_system.cpu00.icache.mem_side::system.l2.cpu_side       980096                       # Cumulative packet size per connected master and slave (bytes)
system.tol2bus.pkt_size_system.cpu00.dcache.mem_side::system.l2.cpu_side      1347904                       # Cumulative packet size per connected master and slave (bytes)
system.tol2bus.pkt_size_system.cpu01.icache.mem_side::system.l2.cpu_side        64128                       # Cumulative packet size per connected master and slave (bytes)
system.tol2bus.pkt_size_system.cpu01.dcache.mem_side::system.l2.cpu_side        38464                       # Cumulative packet size per connected master and slave (bytes)
system.tol2bus.pkt_size_system.cpu02.icache.mem_side::system.l2.cpu_side        35136                       # Cumulative packet size per connected master and slave (bytes)
system.tol2bus.pkt_size_system.cpu02.dcache.mem_side::system.l2.cpu_side        34304                       # Cumulative packet size per connected master and slave (bytes)
system.tol2bus.pkt_size_system.cpu03.icache.mem_side::system.l2.cpu_side        31488                       # Cumulative packet size per connected master and slave (bytes)
system.tol2bus.pkt_size_system.cpu03.dcache.mem_side::system.l2.cpu_side        31424                       # Cumulative packet size per connected master and slave (bytes)
system.tol2bus.pkt_size_system.cpu04.icache.mem_side::system.l2.cpu_side        53632                       # Cumulative packet size per connected master and slave (bytes)
system.tol2bus.pkt_size_system.cpu04.dcache.mem_side::system.l2.cpu_side        36224                       # Cumulative packet size per connected master and slave (bytes)
system.tol2bus.pkt_size_system.cpu05.icache.mem_side::system.l2.cpu_side        40192                       # Cumulative packet size per connected master and slave (bytes)
system.tol2bus.pkt_size_system.cpu05.dcache.mem_side::system.l2.cpu_side        25920                       # Cumulative packet size per connected master and slave (bytes)
system.tol2bus.pkt_size_system.cpu06.icache.mem_side::system.l2.cpu_side        84416                       # Cumulative packet size per connected master and slave (bytes)
system.tol2bus.pkt_size_system.cpu06.dcache.mem_side::system.l2.cpu_side        51648                       # Cumulative packet size per connected master and slave (bytes)
system.tol2bus.pkt_size_system.cpu07.icache.mem_side::system.l2.cpu_side        52992                       # Cumulative packet size per connected master and slave (bytes)
system.tol2bus.pkt_size_system.cpu07.dcache.mem_side::system.l2.cpu_side        29056                       # Cumulative packet size per connected master and slave (bytes)
system.tol2bus.pkt_size_system.cpu08.icache.mem_side::system.l2.cpu_side        72704                       # Cumulative packet size per connected master and slave (bytes)
system.tol2bus.pkt_size_system.cpu08.dcache.mem_side::system.l2.cpu_side        52992                       # Cumulative packet size per connected master and slave (bytes)
system.tol2bus.pkt_size_system.cpu09.icache.mem_side::system.l2.cpu_side        67328                       # Cumulative packet size per connected master and slave (bytes)
system.tol2bus.pkt_size_system.cpu09.dcache.mem_side::system.l2.cpu_side        49088                       # Cumulative packet size per connected master and slave (bytes)
system.tol2bus.pkt_size_system.cpu10.icache.mem_side::system.l2.cpu_side        43840                       # Cumulative packet size per connected master and slave (bytes)
system.tol2bus.pkt_size_system.cpu10.dcache.mem_side::system.l2.cpu_side        32576                       # Cumulative packet size per connected master and slave (bytes)
system.tol2bus.pkt_size_system.cpu11.icache.mem_side::system.l2.cpu_side       104000                       # Cumulative packet size per connected master and slave (bytes)
system.tol2bus.pkt_size_system.cpu11.dcache.mem_side::system.l2.cpu_side        62400                       # Cumulative packet size per connected master and slave (bytes)
system.tol2bus.pkt_size_system.cpu12.icache.mem_side::system.l2.cpu_side       106368                       # Cumulative packet size per connected master and slave (bytes)
system.tol2bus.pkt_size_system.cpu12.dcache.mem_side::system.l2.cpu_side        58112                       # Cumulative packet size per connected master and slave (bytes)
system.tol2bus.pkt_size_system.cpu13.icache.mem_side::system.l2.cpu_side        99008                       # Cumulative packet size per connected master and slave (bytes)
system.tol2bus.pkt_size_system.cpu13.dcache.mem_side::system.l2.cpu_side        52544                       # Cumulative packet size per connected master and slave (bytes)
system.tol2bus.pkt_size_system.cpu14.icache.mem_side::system.l2.cpu_side       120640                       # Cumulative packet size per connected master and slave (bytes)
system.tol2bus.pkt_size_system.cpu14.dcache.mem_side::system.l2.cpu_side        61504                       # Cumulative packet size per connected master and slave (bytes)
system.tol2bus.pkt_size_system.cpu15.icache.mem_side::system.l2.cpu_side       114496                       # Cumulative packet size per connected master and slave (bytes)
system.tol2bus.pkt_size_system.cpu15.dcache.mem_side::system.l2.cpu_side        70336                       # Cumulative packet size per connected master and slave (bytes)
system.tol2bus.pkt_size::total                4104960                       # Cumulative packet size per connected master and slave (bytes)
system.tol2bus.snoops                            7981                       # Total snoops (count)
system.tol2bus.snoop_fanout::samples            47792                       # Request fanout histogram
system.tol2bus.snoop_fanout::mean            2.297916                       # Request fanout histogram
system.tol2bus.snoop_fanout::stdev           3.875212                       # Request fanout histogram
system.tol2bus.snoop_fanout::underflows             0      0.00%      0.00% # Request fanout histogram
system.tol2bus.snoop_fanout::0                  26150     54.72%     54.72% # Request fanout histogram
system.tol2bus.snoop_fanout::1                   7464     15.62%     70.33% # Request fanout histogram
system.tol2bus.snoop_fanout::2                   2063      4.32%     74.65% # Request fanout histogram
system.tol2bus.snoop_fanout::3                   1293      2.71%     77.36% # Request fanout histogram
system.tol2bus.snoop_fanout::4                   1185      2.48%     79.84% # Request fanout histogram
system.tol2bus.snoop_fanout::5                   1188      2.49%     82.32% # Request fanout histogram
system.tol2bus.snoop_fanout::6                   1133      2.37%     84.69% # Request fanout histogram
system.tol2bus.snoop_fanout::7                   1057      2.21%     86.90% # Request fanout histogram
system.tol2bus.snoop_fanout::8                    943      1.97%     88.88% # Request fanout histogram
system.tol2bus.snoop_fanout::9                    929      1.94%     90.82% # Request fanout histogram
system.tol2bus.snoop_fanout::10                   870      1.82%     92.64% # Request fanout histogram
system.tol2bus.snoop_fanout::11                   833      1.74%     94.38% # Request fanout histogram
system.tol2bus.snoop_fanout::12                   781      1.63%     96.02% # Request fanout histogram
system.tol2bus.snoop_fanout::13                   742      1.55%     97.57% # Request fanout histogram
system.tol2bus.snoop_fanout::14                   726      1.52%     99.09% # Request fanout histogram
system.tol2bus.snoop_fanout::15                   434      0.91%    100.00% # Request fanout histogram
system.tol2bus.snoop_fanout::16                     1      0.00%    100.00% # Request fanout histogram
system.tol2bus.snoop_fanout::17                     0      0.00%    100.00% # Request fanout histogram
system.tol2bus.snoop_fanout::18                     0      0.00%    100.00% # Request fanout histogram
system.tol2bus.snoop_fanout::19                     0      0.00%    100.00% # Request fanout histogram
system.tol2bus.snoop_fanout::20                     0      0.00%    100.00% # Request fanout histogram
system.tol2bus.snoop_fanout::21                     0      0.00%    100.00% # Request fanout histogram
system.tol2bus.snoop_fanout::22                     0      0.00%    100.00% # Request fanout histogram
system.tol2bus.snoop_fanout::23                     0      0.00%    100.00% # Request fanout histogram
system.tol2bus.snoop_fanout::24                     0      0.00%    100.00% # Request fanout histogram
system.tol2bus.snoop_fanout::25                     0      0.00%    100.00% # Request fanout histogram
system.tol2bus.snoop_fanout::26                     0      0.00%    100.00% # Request fanout histogram
system.tol2bus.snoop_fanout::27                     0      0.00%    100.00% # Request fanout histogram
system.tol2bus.snoop_fanout::28                     0      0.00%    100.00% # Request fanout histogram
system.tol2bus.snoop_fanout::29                     0      0.00%    100.00% # Request fanout histogram
system.tol2bus.snoop_fanout::30                     0      0.00%    100.00% # Request fanout histogram
system.tol2bus.snoop_fanout::31                     0      0.00%    100.00% # Request fanout histogram
system.tol2bus.snoop_fanout::32                     0      0.00%    100.00% # Request fanout histogram
system.tol2bus.snoop_fanout::overflows              0      0.00%    100.00% # Request fanout histogram
system.tol2bus.snoop_fanout::min_value              0                       # Request fanout histogram
system.tol2bus.snoop_fanout::max_value             16                       # Request fanout histogram
system.tol2bus.snoop_fanout::total              47792                       # Request fanout histogram
system.tol2bus.reqLayer0.occupancy          153029525                       # Layer occupancy (ticks)
system.tol2bus.reqLayer0.utilization             12.2                       # Layer utilization (%)
system.tol2bus.respLayer0.occupancy          28318754                       # Layer occupancy (ticks)
system.tol2bus.respLayer0.utilization             2.3                       # Layer utilization (%)
system.tol2bus.respLayer1.occupancy          44170650                       # Layer occupancy (ticks)
system.tol2bus.respLayer1.utilization             3.5                       # Layer utilization (%)
system.tol2bus.respLayer2.occupancy           2662056                       # Layer occupancy (ticks)
system.tol2bus.respLayer2.utilization             0.2                       # Layer utilization (%)
system.tol2bus.respLayer3.occupancy           3171739                       # Layer occupancy (ticks)
system.tol2bus.respLayer3.utilization             0.3                       # Layer utilization (%)
system.tol2bus.respLayer4.occupancy           1714352                       # Layer occupancy (ticks)
system.tol2bus.respLayer4.utilization             0.1                       # Layer utilization (%)
system.tol2bus.respLayer5.occupancy           1713315                       # Layer occupancy (ticks)
system.tol2bus.respLayer5.utilization             0.1                       # Layer utilization (%)
system.tol2bus.respLayer6.occupancy           1590249                       # Layer occupancy (ticks)
system.tol2bus.respLayer6.utilization             0.1                       # Layer utilization (%)
system.tol2bus.respLayer7.occupancy           1657862                       # Layer occupancy (ticks)
system.tol2bus.respLayer7.utilization             0.1                       # Layer utilization (%)
system.tol2bus.respLayer8.occupancy           2350154                       # Layer occupancy (ticks)
system.tol2bus.respLayer8.utilization             0.2                       # Layer utilization (%)
system.tol2bus.respLayer9.occupancy           2122336                       # Layer occupancy (ticks)
system.tol2bus.respLayer9.utilization             0.2                       # Layer utilization (%)
system.tol2bus.respLayer10.occupancy          1894106                       # Layer occupancy (ticks)
system.tol2bus.respLayer10.utilization            0.2                       # Layer utilization (%)
system.tol2bus.respLayer11.occupancy          1713294                       # Layer occupancy (ticks)
system.tol2bus.respLayer11.utilization            0.1                       # Layer utilization (%)
system.tol2bus.respLayer12.occupancy          3245902                       # Layer occupancy (ticks)
system.tol2bus.respLayer12.utilization            0.3                       # Layer utilization (%)
system.tol2bus.respLayer13.occupancy          3660256                       # Layer occupancy (ticks)
system.tol2bus.respLayer13.utilization            0.3                       # Layer utilization (%)
system.tol2bus.respLayer14.occupancy          2312466                       # Layer occupancy (ticks)
system.tol2bus.respLayer14.utilization            0.2                       # Layer utilization (%)
system.tol2bus.respLayer15.occupancy          2188280                       # Layer occupancy (ticks)
system.tol2bus.respLayer15.utilization            0.2                       # Layer utilization (%)
system.tol2bus.respLayer16.occupancy          2963842                       # Layer occupancy (ticks)
system.tol2bus.respLayer16.utilization            0.2                       # Layer utilization (%)
system.tol2bus.respLayer17.occupancy          2868944                       # Layer occupancy (ticks)
system.tol2bus.respLayer17.utilization            0.2                       # Layer utilization (%)
system.tol2bus.respLayer18.occupancy          2722019                       # Layer occupancy (ticks)
system.tol2bus.respLayer18.utilization            0.2                       # Layer utilization (%)
system.tol2bus.respLayer19.occupancy          2969965                       # Layer occupancy (ticks)
system.tol2bus.respLayer19.utilization            0.2                       # Layer utilization (%)
system.tol2bus.respLayer20.occupancy          2037121                       # Layer occupancy (ticks)
system.tol2bus.respLayer20.utilization            0.2                       # Layer utilization (%)
system.tol2bus.respLayer21.occupancy          1764471                       # Layer occupancy (ticks)
system.tol2bus.respLayer21.utilization            0.1                       # Layer utilization (%)
system.tol2bus.respLayer22.occupancy          3782056                       # Layer occupancy (ticks)
system.tol2bus.respLayer22.utilization            0.3                       # Layer utilization (%)
system.tol2bus.respLayer23.occupancy          4966084                       # Layer occupancy (ticks)
system.tol2bus.respLayer23.utilization            0.4                       # Layer utilization (%)
system.tol2bus.respLayer24.occupancy          3863365                       # Layer occupancy (ticks)
system.tol2bus.respLayer24.utilization            0.3                       # Layer utilization (%)
system.tol2bus.respLayer25.occupancy          4025551                       # Layer occupancy (ticks)
system.tol2bus.respLayer25.utilization            0.3                       # Layer utilization (%)
system.tol2bus.respLayer26.occupancy          3684458                       # Layer occupancy (ticks)
system.tol2bus.respLayer26.utilization            0.3                       # Layer utilization (%)
system.tol2bus.respLayer27.occupancy          3657915                       # Layer occupancy (ticks)
system.tol2bus.respLayer27.utilization            0.3                       # Layer utilization (%)
system.tol2bus.respLayer28.occupancy          4327958                       # Layer occupancy (ticks)
system.tol2bus.respLayer28.utilization            0.3                       # Layer utilization (%)
system.tol2bus.respLayer29.occupancy          4584228                       # Layer occupancy (ticks)
system.tol2bus.respLayer29.utilization            0.4                       # Layer utilization (%)
system.tol2bus.respLayer30.occupancy          4097446                       # Layer occupancy (ticks)
system.tol2bus.respLayer30.utilization            0.3                       # Layer utilization (%)
system.tol2bus.respLayer31.occupancy          5307174                       # Layer occupancy (ticks)
system.tol2bus.respLayer31.utilization            0.4                       # Layer utilization (%)

---------- End Simulation Statistics   ----------
