
---------- Begin Simulation Statistics ----------
sim_seconds                                  0.023896                       # Number of seconds simulated
sim_ticks                                 23895850608                       # Number of ticks simulated
final_tick                                23895850608                       # Number of ticks from beginning of simulation (restored from checkpoints and never reset)
sim_freq                                 1000000000000                       # Frequency of simulated ticks
host_inst_rate                                  88089                       # Simulator instruction rate (inst/s)
host_op_rate                                    88089                       # Simulator op (including micro ops) rate (op/s)
host_tick_rate                               17908094                       # Simulator tick rate (ticks/s)
host_mem_usage                                 696608                       # Number of bytes of host memory used
host_seconds                                  1334.36                       # Real time elapsed on the host
sim_insts                                   117542779                       # Number of instructions simulated
sim_ops                                     117542779                       # Number of ops (including micro ops) simulated
system.voltage_domain.voltage                       1                       # Voltage in Volts
system.clk_domain.clock                          1000                       # Clock period in ticks
system.mem_ctrls.bytes_read::cpu00.inst        183360                       # Number of bytes read from this memory
system.mem_ctrls.bytes_read::cpu00.data       3204288                       # Number of bytes read from this memory
system.mem_ctrls.bytes_read::cpu01.inst         59840                       # Number of bytes read from this memory
system.mem_ctrls.bytes_read::cpu01.data       2716864                       # Number of bytes read from this memory
system.mem_ctrls.bytes_read::cpu02.inst         16704                       # Number of bytes read from this memory
system.mem_ctrls.bytes_read::cpu02.data       2572928                       # Number of bytes read from this memory
system.mem_ctrls.bytes_read::cpu03.inst         13504                       # Number of bytes read from this memory
system.mem_ctrls.bytes_read::cpu03.data       2633280                       # Number of bytes read from this memory
system.mem_ctrls.bytes_read::cpu04.inst         27264                       # Number of bytes read from this memory
system.mem_ctrls.bytes_read::cpu04.data       2758144                       # Number of bytes read from this memory
system.mem_ctrls.bytes_read::cpu05.inst         17024                       # Number of bytes read from this memory
system.mem_ctrls.bytes_read::cpu05.data       2668416                       # Number of bytes read from this memory
system.mem_ctrls.bytes_read::cpu06.inst         14976                       # Number of bytes read from this memory
system.mem_ctrls.bytes_read::cpu06.data       2590208                       # Number of bytes read from this memory
system.mem_ctrls.bytes_read::cpu07.inst         17088                       # Number of bytes read from this memory
system.mem_ctrls.bytes_read::cpu07.data       2609472                       # Number of bytes read from this memory
system.mem_ctrls.bytes_read::cpu08.inst         16704                       # Number of bytes read from this memory
system.mem_ctrls.bytes_read::cpu08.data       2733760                       # Number of bytes read from this memory
system.mem_ctrls.bytes_read::cpu09.inst         19264                       # Number of bytes read from this memory
system.mem_ctrls.bytes_read::cpu09.data       2635136                       # Number of bytes read from this memory
system.mem_ctrls.bytes_read::cpu10.inst         15680                       # Number of bytes read from this memory
system.mem_ctrls.bytes_read::cpu10.data       2604736                       # Number of bytes read from this memory
system.mem_ctrls.bytes_read::cpu11.inst         15424                       # Number of bytes read from this memory
system.mem_ctrls.bytes_read::cpu11.data       2601856                       # Number of bytes read from this memory
system.mem_ctrls.bytes_read::cpu12.inst         22080                       # Number of bytes read from this memory
system.mem_ctrls.bytes_read::cpu12.data       2736064                       # Number of bytes read from this memory
system.mem_ctrls.bytes_read::cpu13.inst         39936                       # Number of bytes read from this memory
system.mem_ctrls.bytes_read::cpu13.data       2767040                       # Number of bytes read from this memory
system.mem_ctrls.bytes_read::cpu14.inst         14976                       # Number of bytes read from this memory
system.mem_ctrls.bytes_read::cpu14.data       2593408                       # Number of bytes read from this memory
system.mem_ctrls.bytes_read::cpu15.inst         31360                       # Number of bytes read from this memory
system.mem_ctrls.bytes_read::cpu15.data       2761920                       # Number of bytes read from this memory
system.mem_ctrls.bytes_read::total           43712704                       # Number of bytes read from this memory
system.mem_ctrls.bytes_inst_read::cpu00.inst       183360                       # Number of instructions bytes read from this memory
system.mem_ctrls.bytes_inst_read::cpu01.inst        59840                       # Number of instructions bytes read from this memory
system.mem_ctrls.bytes_inst_read::cpu02.inst        16704                       # Number of instructions bytes read from this memory
system.mem_ctrls.bytes_inst_read::cpu03.inst        13504                       # Number of instructions bytes read from this memory
system.mem_ctrls.bytes_inst_read::cpu04.inst        27264                       # Number of instructions bytes read from this memory
system.mem_ctrls.bytes_inst_read::cpu05.inst        17024                       # Number of instructions bytes read from this memory
system.mem_ctrls.bytes_inst_read::cpu06.inst        14976                       # Number of instructions bytes read from this memory
system.mem_ctrls.bytes_inst_read::cpu07.inst        17088                       # Number of instructions bytes read from this memory
system.mem_ctrls.bytes_inst_read::cpu08.inst        16704                       # Number of instructions bytes read from this memory
system.mem_ctrls.bytes_inst_read::cpu09.inst        19264                       # Number of instructions bytes read from this memory
system.mem_ctrls.bytes_inst_read::cpu10.inst        15680                       # Number of instructions bytes read from this memory
system.mem_ctrls.bytes_inst_read::cpu11.inst        15424                       # Number of instructions bytes read from this memory
system.mem_ctrls.bytes_inst_read::cpu12.inst        22080                       # Number of instructions bytes read from this memory
system.mem_ctrls.bytes_inst_read::cpu13.inst        39936                       # Number of instructions bytes read from this memory
system.mem_ctrls.bytes_inst_read::cpu14.inst        14976                       # Number of instructions bytes read from this memory
system.mem_ctrls.bytes_inst_read::cpu15.inst        31360                       # Number of instructions bytes read from this memory
system.mem_ctrls.bytes_inst_read::total        525184                       # Number of instructions bytes read from this memory
system.mem_ctrls.bytes_written::writebacks     30912704                       # Number of bytes written to this memory
system.mem_ctrls.bytes_written::total        30912704                       # Number of bytes written to this memory
system.mem_ctrls.num_reads::cpu00.inst           2865                       # Number of read requests responded to by this memory
system.mem_ctrls.num_reads::cpu00.data          50067                       # Number of read requests responded to by this memory
system.mem_ctrls.num_reads::cpu01.inst            935                       # Number of read requests responded to by this memory
system.mem_ctrls.num_reads::cpu01.data          42451                       # Number of read requests responded to by this memory
system.mem_ctrls.num_reads::cpu02.inst            261                       # Number of read requests responded to by this memory
system.mem_ctrls.num_reads::cpu02.data          40202                       # Number of read requests responded to by this memory
system.mem_ctrls.num_reads::cpu03.inst            211                       # Number of read requests responded to by this memory
system.mem_ctrls.num_reads::cpu03.data          41145                       # Number of read requests responded to by this memory
system.mem_ctrls.num_reads::cpu04.inst            426                       # Number of read requests responded to by this memory
system.mem_ctrls.num_reads::cpu04.data          43096                       # Number of read requests responded to by this memory
system.mem_ctrls.num_reads::cpu05.inst            266                       # Number of read requests responded to by this memory
system.mem_ctrls.num_reads::cpu05.data          41694                       # Number of read requests responded to by this memory
system.mem_ctrls.num_reads::cpu06.inst            234                       # Number of read requests responded to by this memory
system.mem_ctrls.num_reads::cpu06.data          40472                       # Number of read requests responded to by this memory
system.mem_ctrls.num_reads::cpu07.inst            267                       # Number of read requests responded to by this memory
system.mem_ctrls.num_reads::cpu07.data          40773                       # Number of read requests responded to by this memory
system.mem_ctrls.num_reads::cpu08.inst            261                       # Number of read requests responded to by this memory
system.mem_ctrls.num_reads::cpu08.data          42715                       # Number of read requests responded to by this memory
system.mem_ctrls.num_reads::cpu09.inst            301                       # Number of read requests responded to by this memory
system.mem_ctrls.num_reads::cpu09.data          41174                       # Number of read requests responded to by this memory
system.mem_ctrls.num_reads::cpu10.inst            245                       # Number of read requests responded to by this memory
system.mem_ctrls.num_reads::cpu10.data          40699                       # Number of read requests responded to by this memory
system.mem_ctrls.num_reads::cpu11.inst            241                       # Number of read requests responded to by this memory
system.mem_ctrls.num_reads::cpu11.data          40654                       # Number of read requests responded to by this memory
system.mem_ctrls.num_reads::cpu12.inst            345                       # Number of read requests responded to by this memory
system.mem_ctrls.num_reads::cpu12.data          42751                       # Number of read requests responded to by this memory
system.mem_ctrls.num_reads::cpu13.inst            624                       # Number of read requests responded to by this memory
system.mem_ctrls.num_reads::cpu13.data          43235                       # Number of read requests responded to by this memory
system.mem_ctrls.num_reads::cpu14.inst            234                       # Number of read requests responded to by this memory
system.mem_ctrls.num_reads::cpu14.data          40522                       # Number of read requests responded to by this memory
system.mem_ctrls.num_reads::cpu15.inst            490                       # Number of read requests responded to by this memory
system.mem_ctrls.num_reads::cpu15.data          43155                       # Number of read requests responded to by this memory
system.mem_ctrls.num_reads::total              683011                       # Number of read requests responded to by this memory
system.mem_ctrls.num_writes::writebacks        483011                       # Number of write requests responded to by this memory
system.mem_ctrls.num_writes::total             483011                       # Number of write requests responded to by this memory
system.mem_ctrls.bw_read::cpu00.inst          7673299                       # Total read bandwidth from this memory (bytes/s)
system.mem_ctrls.bw_read::cpu00.data        134093908                       # Total read bandwidth from this memory (bytes/s)
system.mem_ctrls.bw_read::cpu01.inst          2504200                       # Total read bandwidth from this memory (bytes/s)
system.mem_ctrls.bw_read::cpu01.data        113696057                       # Total read bandwidth from this memory (bytes/s)
system.mem_ctrls.bw_read::cpu02.inst           699033                       # Total read bandwidth from this memory (bytes/s)
system.mem_ctrls.bw_read::cpu02.data        107672585                       # Total read bandwidth from this memory (bytes/s)
system.mem_ctrls.bw_read::cpu03.inst           565119                       # Total read bandwidth from this memory (bytes/s)
system.mem_ctrls.bw_read::cpu03.data        110198212                       # Total read bandwidth from this memory (bytes/s)
system.mem_ctrls.bw_read::cpu04.inst          1140951                       # Total read bandwidth from this memory (bytes/s)
system.mem_ctrls.bw_read::cpu04.data        115423554                       # Total read bandwidth from this memory (bytes/s)
system.mem_ctrls.bw_read::cpu05.inst           712425                       # Total read bandwidth from this memory (bytes/s)
system.mem_ctrls.bw_read::cpu05.data        111668592                       # Total read bandwidth from this memory (bytes/s)
system.mem_ctrls.bw_read::cpu06.inst           626720                       # Total read bandwidth from this memory (bytes/s)
system.mem_ctrls.bw_read::cpu06.data        108395723                       # Total read bandwidth from this memory (bytes/s)
system.mem_ctrls.bw_read::cpu07.inst           715103                       # Total read bandwidth from this memory (bytes/s)
system.mem_ctrls.bw_read::cpu07.data        109201888                       # Total read bandwidth from this memory (bytes/s)
system.mem_ctrls.bw_read::cpu08.inst           699033                       # Total read bandwidth from this memory (bytes/s)
system.mem_ctrls.bw_read::cpu08.data        114403126                       # Total read bandwidth from this memory (bytes/s)
system.mem_ctrls.bw_read::cpu09.inst           806165                       # Total read bandwidth from this memory (bytes/s)
system.mem_ctrls.bw_read::cpu09.data        110275882                       # Total read bandwidth from this memory (bytes/s)
system.mem_ctrls.bw_read::cpu10.inst           656181                       # Total read bandwidth from this memory (bytes/s)
system.mem_ctrls.bw_read::cpu10.data        109003695                       # Total read bandwidth from this memory (bytes/s)
system.mem_ctrls.bw_read::cpu11.inst           645468                       # Total read bandwidth from this memory (bytes/s)
system.mem_ctrls.bw_read::cpu11.data        108883172                       # Total read bandwidth from this memory (bytes/s)
system.mem_ctrls.bw_read::cpu12.inst           924010                       # Total read bandwidth from this memory (bytes/s)
system.mem_ctrls.bw_read::cpu12.data        114499544                       # Total read bandwidth from this memory (bytes/s)
system.mem_ctrls.bw_read::cpu13.inst          1671252                       # Total read bandwidth from this memory (bytes/s)
system.mem_ctrls.bw_read::cpu13.data        115795836                       # Total read bandwidth from this memory (bytes/s)
system.mem_ctrls.bw_read::cpu14.inst           626720                       # Total read bandwidth from this memory (bytes/s)
system.mem_ctrls.bw_read::cpu14.data        108529637                       # Total read bandwidth from this memory (bytes/s)
system.mem_ctrls.bw_read::cpu15.inst          1312362                       # Total read bandwidth from this memory (bytes/s)
system.mem_ctrls.bw_read::cpu15.data        115581573                       # Total read bandwidth from this memory (bytes/s)
system.mem_ctrls.bw_read::total            1829301025                       # Total read bandwidth from this memory (bytes/s)
system.mem_ctrls.bw_inst_read::cpu00.inst      7673299                       # Instruction read bandwidth from this memory (bytes/s)
system.mem_ctrls.bw_inst_read::cpu01.inst      2504200                       # Instruction read bandwidth from this memory (bytes/s)
system.mem_ctrls.bw_inst_read::cpu02.inst       699033                       # Instruction read bandwidth from this memory (bytes/s)
system.mem_ctrls.bw_inst_read::cpu03.inst       565119                       # Instruction read bandwidth from this memory (bytes/s)
system.mem_ctrls.bw_inst_read::cpu04.inst      1140951                       # Instruction read bandwidth from this memory (bytes/s)
system.mem_ctrls.bw_inst_read::cpu05.inst       712425                       # Instruction read bandwidth from this memory (bytes/s)
system.mem_ctrls.bw_inst_read::cpu06.inst       626720                       # Instruction read bandwidth from this memory (bytes/s)
system.mem_ctrls.bw_inst_read::cpu07.inst       715103                       # Instruction read bandwidth from this memory (bytes/s)
system.mem_ctrls.bw_inst_read::cpu08.inst       699033                       # Instruction read bandwidth from this memory (bytes/s)
system.mem_ctrls.bw_inst_read::cpu09.inst       806165                       # Instruction read bandwidth from this memory (bytes/s)
system.mem_ctrls.bw_inst_read::cpu10.inst       656181                       # Instruction read bandwidth from this memory (bytes/s)
system.mem_ctrls.bw_inst_read::cpu11.inst       645468                       # Instruction read bandwidth from this memory (bytes/s)
system.mem_ctrls.bw_inst_read::cpu12.inst       924010                       # Instruction read bandwidth from this memory (bytes/s)
system.mem_ctrls.bw_inst_read::cpu13.inst      1671252                       # Instruction read bandwidth from this memory (bytes/s)
system.mem_ctrls.bw_inst_read::cpu14.inst       626720                       # Instruction read bandwidth from this memory (bytes/s)
system.mem_ctrls.bw_inst_read::cpu15.inst      1312362                       # Instruction read bandwidth from this memory (bytes/s)
system.mem_ctrls.bw_inst_read::total         21978042                       # Instruction read bandwidth from this memory (bytes/s)
system.mem_ctrls.bw_write::writebacks      1293643173                       # Write bandwidth from this memory (bytes/s)
system.mem_ctrls.bw_write::total           1293643173                       # Write bandwidth from this memory (bytes/s)
system.mem_ctrls.bw_total::writebacks      1293643173                       # Total bandwidth to/from this memory (bytes/s)
system.mem_ctrls.bw_total::cpu00.inst         7673299                       # Total bandwidth to/from this memory (bytes/s)
system.mem_ctrls.bw_total::cpu00.data       134093908                       # Total bandwidth to/from this memory (bytes/s)
system.mem_ctrls.bw_total::cpu01.inst         2504200                       # Total bandwidth to/from this memory (bytes/s)
system.mem_ctrls.bw_total::cpu01.data       113696057                       # Total bandwidth to/from this memory (bytes/s)
system.mem_ctrls.bw_total::cpu02.inst          699033                       # Total bandwidth to/from this memory (bytes/s)
system.mem_ctrls.bw_total::cpu02.data       107672585                       # Total bandwidth to/from this memory (bytes/s)
system.mem_ctrls.bw_total::cpu03.inst          565119                       # Total bandwidth to/from this memory (bytes/s)
system.mem_ctrls.bw_total::cpu03.data       110198212                       # Total bandwidth to/from this memory (bytes/s)
system.mem_ctrls.bw_total::cpu04.inst         1140951                       # Total bandwidth to/from this memory (bytes/s)
system.mem_ctrls.bw_total::cpu04.data       115423554                       # Total bandwidth to/from this memory (bytes/s)
system.mem_ctrls.bw_total::cpu05.inst          712425                       # Total bandwidth to/from this memory (bytes/s)
system.mem_ctrls.bw_total::cpu05.data       111668592                       # Total bandwidth to/from this memory (bytes/s)
system.mem_ctrls.bw_total::cpu06.inst          626720                       # Total bandwidth to/from this memory (bytes/s)
system.mem_ctrls.bw_total::cpu06.data       108395723                       # Total bandwidth to/from this memory (bytes/s)
system.mem_ctrls.bw_total::cpu07.inst          715103                       # Total bandwidth to/from this memory (bytes/s)
system.mem_ctrls.bw_total::cpu07.data       109201888                       # Total bandwidth to/from this memory (bytes/s)
system.mem_ctrls.bw_total::cpu08.inst          699033                       # Total bandwidth to/from this memory (bytes/s)
system.mem_ctrls.bw_total::cpu08.data       114403126                       # Total bandwidth to/from this memory (bytes/s)
system.mem_ctrls.bw_total::cpu09.inst          806165                       # Total bandwidth to/from this memory (bytes/s)
system.mem_ctrls.bw_total::cpu09.data       110275882                       # Total bandwidth to/from this memory (bytes/s)
system.mem_ctrls.bw_total::cpu10.inst          656181                       # Total bandwidth to/from this memory (bytes/s)
system.mem_ctrls.bw_total::cpu10.data       109003695                       # Total bandwidth to/from this memory (bytes/s)
system.mem_ctrls.bw_total::cpu11.inst          645468                       # Total bandwidth to/from this memory (bytes/s)
system.mem_ctrls.bw_total::cpu11.data       108883172                       # Total bandwidth to/from this memory (bytes/s)
system.mem_ctrls.bw_total::cpu12.inst          924010                       # Total bandwidth to/from this memory (bytes/s)
system.mem_ctrls.bw_total::cpu12.data       114499544                       # Total bandwidth to/from this memory (bytes/s)
system.mem_ctrls.bw_total::cpu13.inst         1671252                       # Total bandwidth to/from this memory (bytes/s)
system.mem_ctrls.bw_total::cpu13.data       115795836                       # Total bandwidth to/from this memory (bytes/s)
system.mem_ctrls.bw_total::cpu14.inst          626720                       # Total bandwidth to/from this memory (bytes/s)
system.mem_ctrls.bw_total::cpu14.data       108529637                       # Total bandwidth to/from this memory (bytes/s)
system.mem_ctrls.bw_total::cpu15.inst         1312362                       # Total bandwidth to/from this memory (bytes/s)
system.mem_ctrls.bw_total::cpu15.data       115581573                       # Total bandwidth to/from this memory (bytes/s)
system.mem_ctrls.bw_total::total           3122944197                       # Total bandwidth to/from this memory (bytes/s)
system.cpu00.branchPred.lookups                583202                       # Number of BP lookups
system.cpu00.branchPred.condPredicted          468120                       # Number of conditional branches predicted
system.cpu00.branchPred.condIncorrect           11204                       # Number of conditional branches incorrect
system.cpu00.branchPred.BTBLookups             394814                       # Number of BTB lookups
system.cpu00.branchPred.BTBHits                272727                       # Number of BTB hits
system.cpu00.branchPred.BTBCorrect                  0                       # Number of correct BTB predictions (this stat may not work properly.
system.cpu00.branchPred.BTBHitPct           69.077338                       # BTB Hit Percentage
system.cpu00.branchPred.usedRAS                 45177                       # Number of times the RAS was used to get a target.
system.cpu00.branchPred.RASInCorrect               85                       # Number of incorrect RAS predictions.
system.cpu00.branchPred.indirectLookups          8813                       # Number of indirect predictor lookups.
system.cpu00.branchPred.indirectHits             7980                       # Number of indirect target hits.
system.cpu00.branchPred.indirectMisses            833                       # Number of indirect misses.
system.cpu00.branchPredindirectMispredicted          257                       # Number of mispredicted indirect branches.
system.cpu_voltage_domain.voltage                   1                       # Voltage in Volts
system.cpu_clk_domain.clock                      1161                       # Clock period in ticks
system.cpu00.dtb.fetch_hits                         0                       # ITB hits
system.cpu00.dtb.fetch_misses                       0                       # ITB misses
system.cpu00.dtb.fetch_acv                          0                       # ITB acv
system.cpu00.dtb.fetch_accesses                     0                       # ITB accesses
system.cpu00.dtb.read_hits                    5853194                       # DTB read hits
system.cpu00.dtb.read_misses                     8536                       # DTB read misses
system.cpu00.dtb.read_acv                           5                       # DTB read access violations
system.cpu00.dtb.read_accesses                5861730                       # DTB read accesses
system.cpu00.dtb.write_hits                    649834                       # DTB write hits
system.cpu00.dtb.write_misses                   10011                       # DTB write misses
system.cpu00.dtb.write_acv                          0                       # DTB write access violations
system.cpu00.dtb.write_accesses                659845                       # DTB write accesses
system.cpu00.dtb.data_hits                    6503028                       # DTB hits
system.cpu00.dtb.data_misses                    18547                       # DTB misses
system.cpu00.dtb.data_acv                           5                       # DTB access violations
system.cpu00.dtb.data_accesses                6521575                       # DTB accesses
system.cpu00.itb.fetch_hits                    839730                       # ITB hits
system.cpu00.itb.fetch_misses                     248                       # ITB misses
system.cpu00.itb.fetch_acv                          0                       # ITB acv
system.cpu00.itb.fetch_accesses                839978                       # ITB accesses
system.cpu00.itb.read_hits                          0                       # DTB read hits
system.cpu00.itb.read_misses                        0                       # DTB read misses
system.cpu00.itb.read_acv                           0                       # DTB read access violations
system.cpu00.itb.read_accesses                      0                       # DTB read accesses
system.cpu00.itb.write_hits                         0                       # DTB write hits
system.cpu00.itb.write_misses                       0                       # DTB write misses
system.cpu00.itb.write_acv                          0                       # DTB write access violations
system.cpu00.itb.write_accesses                     0                       # DTB write accesses
system.cpu00.itb.data_hits                          0                       # DTB hits
system.cpu00.itb.data_misses                        0                       # DTB misses
system.cpu00.itb.data_acv                           0                       # DTB access violations
system.cpu00.itb.data_accesses                      0                       # DTB accesses
system.cpu00.workload.num_syscalls              66236                       # Number of system calls
system.cpu00.numCycles                       19557547                       # number of cpu cycles simulated
system.cpu00.numWorkItemsStarted                    0                       # number of work items this cpu started
system.cpu00.numWorkItemsCompleted                  0                       # number of work items this cpu completed
system.cpu00.fetch.icacheStallCycles           225343                       # Number of cycles fetch is stalled on an Icache miss
system.cpu00.fetch.Insts                      9328091                       # Number of instructions fetch has processed
system.cpu00.fetch.Branches                    583202                       # Number of branches that fetch encountered
system.cpu00.fetch.predictedBranches           325884                       # Number of branches that fetch has predicted taken
system.cpu00.fetch.Cycles                    18854461                       # Number of cycles fetch has run and was not squashing or blocked
system.cpu00.fetch.SquashCycles                 29596                       # Number of cycles fetch has spent squashing
system.cpu00.fetch.TlbCycles                       51                       # Number of cycles fetch has spent waiting for tlb
system.cpu00.fetch.MiscStallCycles                866                       # Number of cycles fetch has spent waiting on interrupts, or bad addresses, or out of MSHRs
system.cpu00.fetch.PendingTrapStallCycles        10197                       # Number of stall cycles due to pending traps
system.cpu00.fetch.IcacheWaitRetryStallCycles         1715                       # Number of stall cycles due to full MSHR
system.cpu00.fetch.CacheLines                  839730                       # Number of cache lines fetched
system.cpu00.fetch.IcacheSquashes                3857                       # Number of outstanding Icache misses that were squashed
system.cpu00.fetch.rateDist::samples         19107431                       # Number of instructions fetched each cycle (Total)
system.cpu00.fetch.rateDist::mean            0.488192                       # Number of instructions fetched each cycle (Total)
system.cpu00.fetch.rateDist::stdev           1.767763                       # Number of instructions fetched each cycle (Total)
system.cpu00.fetch.rateDist::underflows             0      0.00%      0.00% # Number of instructions fetched each cycle (Total)
system.cpu00.fetch.rateDist::0               17502727     91.60%     91.60% # Number of instructions fetched each cycle (Total)
system.cpu00.fetch.rateDist::1                 121224      0.63%     92.24% # Number of instructions fetched each cycle (Total)
system.cpu00.fetch.rateDist::2                 131472      0.69%     92.92% # Number of instructions fetched each cycle (Total)
system.cpu00.fetch.rateDist::3                 120784      0.63%     93.56% # Number of instructions fetched each cycle (Total)
system.cpu00.fetch.rateDist::4                 156886      0.82%     94.38% # Number of instructions fetched each cycle (Total)
system.cpu00.fetch.rateDist::5                 109382      0.57%     94.95% # Number of instructions fetched each cycle (Total)
system.cpu00.fetch.rateDist::6                 108130      0.57%     95.52% # Number of instructions fetched each cycle (Total)
system.cpu00.fetch.rateDist::7                  96271      0.50%     96.02% # Number of instructions fetched each cycle (Total)
system.cpu00.fetch.rateDist::8                 760555      3.98%    100.00% # Number of instructions fetched each cycle (Total)
system.cpu00.fetch.rateDist::overflows              0      0.00%    100.00% # Number of instructions fetched each cycle (Total)
system.cpu00.fetch.rateDist::min_value              0                       # Number of instructions fetched each cycle (Total)
system.cpu00.fetch.rateDist::max_value              8                       # Number of instructions fetched each cycle (Total)
system.cpu00.fetch.rateDist::total           19107431                       # Number of instructions fetched each cycle (Total)
system.cpu00.fetch.branchRate                0.029820                       # Number of branch fetches per cycle
system.cpu00.fetch.rate                      0.476956                       # Number of inst fetches per cycle
system.cpu00.decode.IdleCycles                 394351                       # Number of cycles decode is idle
system.cpu00.decode.BlockedCycles            17531103                       # Number of cycles decode is blocked
system.cpu00.decode.RunCycles                  621031                       # Number of cycles decode is running
system.cpu00.decode.UnblockCycles              548672                       # Number of cycles decode is unblocking
system.cpu00.decode.SquashCycles                12274                       # Number of cycles decode is squashing
system.cpu00.decode.BranchResolved              54789                       # Number of times decode resolved a branch
system.cpu00.decode.BranchMispred                2575                       # Number of times decode detected a branch misprediction
system.cpu00.decode.DecodedInsts              9026264                       # Number of instructions handled by decode
system.cpu00.decode.SquashedInsts               10229                       # Number of squashed instructions handled by decode
system.cpu00.rename.SquashCycles                12274                       # Number of cycles rename is squashing
system.cpu00.rename.IdleCycles                 584150                       # Number of cycles rename is idle
system.cpu00.rename.BlockCycles              11552780                       # Number of cycles rename is blocking
system.cpu00.rename.serializeStallCycles       812795                       # count of cycles rename stalled for serializing inst
system.cpu00.rename.RunCycles                  915578                       # Number of cycles rename is running
system.cpu00.rename.UnblockCycles             5229854                       # Number of cycles rename is unblocking
system.cpu00.rename.RenamedInsts              8955386                       # Number of instructions processed by rename
system.cpu00.rename.ROBFullEvents                5010                       # Number of times rename has blocked due to ROB full
system.cpu00.rename.IQFullEvents              1463826                       # Number of times rename has blocked due to IQ full
system.cpu00.rename.LQFullEvents              2798245                       # Number of times rename has blocked due to LQ full
system.cpu00.rename.SQFullEvents              1326513                       # Number of times rename has blocked due to SQ full
system.cpu00.rename.RenamedOperands           7171209                       # Number of destination operands rename has renamed
system.cpu00.rename.RenameLookups            13248335                       # Number of register rename lookups that rename has made
system.cpu00.rename.int_rename_lookups        6922707                       # Number of integer rename lookups
system.cpu00.rename.fp_rename_lookups         6324257                       # Number of floating rename lookups
system.cpu00.rename.CommittedMaps             6841085                       # Number of HB maps that are committed
system.cpu00.rename.UndoneMaps                 330124                       # Number of HB maps that are undone due to squashing
system.cpu00.rename.serializingInsts            14372                       # count of serializing insts renamed
system.cpu00.rename.tempSerializingInsts        12908                       # count of temporary serializing insts renamed
system.cpu00.rename.skidInsts                 3368955                       # count of insts added to the skid buffer
system.cpu00.memDep0.insertedLoads            2317040                       # Number of loads inserted to the mem dependence unit.
system.cpu00.memDep0.insertedStores            690259                       # Number of stores inserted to the mem dependence unit.
system.cpu00.memDep0.conflictingLoads           92910                       # Number of conflicting loads.
system.cpu00.memDep0.conflictingStores          68341                       # Number of conflicting stores.
system.cpu00.iq.iqInstsAdded                  8737304                       # Number of instructions added to the IQ (excludes non-spec)
system.cpu00.iq.iqNonSpecInstsAdded             19454                       # Number of non-speculative instructions added to the IQ
system.cpu00.iq.iqInstsIssued                12201751                       # Number of instructions issued
system.cpu00.iq.iqSquashedInstsIssued            8570                       # Number of squashed instructions issued
system.cpu00.iq.iqSquashedInstsExamined        417012                       # Number of squashed instructions iterated over during squash; mainly for profiling
system.cpu00.iq.iqSquashedOperandsExamined       250012                       # Number of squashed operands that are examined and possibly removed from graph
system.cpu00.iq.iqSquashedNonSpecRemoved         2565                       # Number of squashed non-spec instructions that were removed
system.cpu00.iq.issued_per_cycle::samples     19107431                       # Number of insts issued each cycle
system.cpu00.iq.issued_per_cycle::mean       0.638587                       # Number of insts issued each cycle
system.cpu00.iq.issued_per_cycle::stdev      1.478075                       # Number of insts issued each cycle
system.cpu00.iq.issued_per_cycle::underflows            0      0.00%      0.00% # Number of insts issued each cycle
system.cpu00.iq.issued_per_cycle::0          14917132     78.07%     78.07% # Number of insts issued each cycle
system.cpu00.iq.issued_per_cycle::1           1330102      6.96%     85.03% # Number of insts issued each cycle
system.cpu00.iq.issued_per_cycle::2            758934      3.97%     89.00% # Number of insts issued each cycle
system.cpu00.iq.issued_per_cycle::3            422372      2.21%     91.21% # Number of insts issued each cycle
system.cpu00.iq.issued_per_cycle::4            985851      5.16%     96.37% # Number of insts issued each cycle
system.cpu00.iq.issued_per_cycle::5            317336      1.66%     98.03% # Number of insts issued each cycle
system.cpu00.iq.issued_per_cycle::6            176260      0.92%     98.96% # Number of insts issued each cycle
system.cpu00.iq.issued_per_cycle::7             96531      0.51%     99.46% # Number of insts issued each cycle
system.cpu00.iq.issued_per_cycle::8            102913      0.54%    100.00% # Number of insts issued each cycle
system.cpu00.iq.issued_per_cycle::overflows            0      0.00%    100.00% # Number of insts issued each cycle
system.cpu00.iq.issued_per_cycle::min_value            0                       # Number of insts issued each cycle
system.cpu00.iq.issued_per_cycle::max_value            8                       # Number of insts issued each cycle
system.cpu00.iq.issued_per_cycle::total      19107431                       # Number of insts issued each cycle
system.cpu00.iq.fu_full::No_OpClass                 0      0.00%      0.00% # attempts to use FU when none available
system.cpu00.iq.fu_full::IntAlu                  9625      0.93%      0.93% # attempts to use FU when none available
system.cpu00.iq.fu_full::IntMult                    0      0.00%      0.93% # attempts to use FU when none available
system.cpu00.iq.fu_full::IntDiv                     0      0.00%      0.93% # attempts to use FU when none available
system.cpu00.iq.fu_full::FloatAdd               56010      5.40%      6.32% # attempts to use FU when none available
system.cpu00.iq.fu_full::FloatCmp                   0      0.00%      6.32% # attempts to use FU when none available
system.cpu00.iq.fu_full::FloatCvt                   0      0.00%      6.32% # attempts to use FU when none available
system.cpu00.iq.fu_full::FloatMult              92213      8.89%     15.21% # attempts to use FU when none available
system.cpu00.iq.fu_full::FloatDiv                  42      0.00%     15.21% # attempts to use FU when none available
system.cpu00.iq.fu_full::FloatSqrt                  0      0.00%     15.21% # attempts to use FU when none available
system.cpu00.iq.fu_full::SimdAdd                    0      0.00%     15.21% # attempts to use FU when none available
system.cpu00.iq.fu_full::SimdAddAcc                 0      0.00%     15.21% # attempts to use FU when none available
system.cpu00.iq.fu_full::SimdAlu                    0      0.00%     15.21% # attempts to use FU when none available
system.cpu00.iq.fu_full::SimdCmp                    0      0.00%     15.21% # attempts to use FU when none available
system.cpu00.iq.fu_full::SimdCvt                    0      0.00%     15.21% # attempts to use FU when none available
system.cpu00.iq.fu_full::SimdMisc                   0      0.00%     15.21% # attempts to use FU when none available
system.cpu00.iq.fu_full::SimdMult                   0      0.00%     15.21% # attempts to use FU when none available
system.cpu00.iq.fu_full::SimdMultAcc                0      0.00%     15.21% # attempts to use FU when none available
system.cpu00.iq.fu_full::SimdShift                  0      0.00%     15.21% # attempts to use FU when none available
system.cpu00.iq.fu_full::SimdShiftAcc               0      0.00%     15.21% # attempts to use FU when none available
system.cpu00.iq.fu_full::SimdSqrt                   0      0.00%     15.21% # attempts to use FU when none available
system.cpu00.iq.fu_full::SimdFloatAdd               0      0.00%     15.21% # attempts to use FU when none available
system.cpu00.iq.fu_full::SimdFloatAlu               0      0.00%     15.21% # attempts to use FU when none available
system.cpu00.iq.fu_full::SimdFloatCmp               0      0.00%     15.21% # attempts to use FU when none available
system.cpu00.iq.fu_full::SimdFloatCvt               0      0.00%     15.21% # attempts to use FU when none available
system.cpu00.iq.fu_full::SimdFloatDiv               0      0.00%     15.21% # attempts to use FU when none available
system.cpu00.iq.fu_full::SimdFloatMisc              0      0.00%     15.21% # attempts to use FU when none available
system.cpu00.iq.fu_full::SimdFloatMult              0      0.00%     15.21% # attempts to use FU when none available
system.cpu00.iq.fu_full::SimdFloatMultAcc            0      0.00%     15.21% # attempts to use FU when none available
system.cpu00.iq.fu_full::SimdFloatSqrt              0      0.00%     15.21% # attempts to use FU when none available
system.cpu00.iq.fu_full::MemRead               856089     82.49%     97.70% # attempts to use FU when none available
system.cpu00.iq.fu_full::MemWrite               23847      2.30%    100.00% # attempts to use FU when none available
system.cpu00.iq.fu_full::IprAccess                  0      0.00%    100.00% # attempts to use FU when none available
system.cpu00.iq.fu_full::InstPrefetch               0      0.00%    100.00% # attempts to use FU when none available
system.cpu00.iq.FU_type_0::No_OpClass               0      0.00%      0.00% # Type of FU issued
system.cpu00.iq.FU_type_0::IntAlu             2662705     21.82%     21.82% # Type of FU issued
system.cpu00.iq.FU_type_0::IntMult                902      0.01%     21.83% # Type of FU issued
system.cpu00.iq.FU_type_0::IntDiv                   0      0.00%     21.83% # Type of FU issued
system.cpu00.iq.FU_type_0::FloatAdd           2140137     17.54%     39.37% # Type of FU issued
system.cpu00.iq.FU_type_0::FloatCmp            114813      0.94%     40.31% # Type of FU issued
system.cpu00.iq.FU_type_0::FloatCvt                 0      0.00%     40.31% # Type of FU issued
system.cpu00.iq.FU_type_0::FloatMult           738418      6.05%     46.36% # Type of FU issued
system.cpu00.iq.FU_type_0::FloatDiv              9052      0.07%     46.44% # Type of FU issued
system.cpu00.iq.FU_type_0::FloatSqrt                0      0.00%     46.44% # Type of FU issued
system.cpu00.iq.FU_type_0::SimdAdd                  0      0.00%     46.44% # Type of FU issued
system.cpu00.iq.FU_type_0::SimdAddAcc               0      0.00%     46.44% # Type of FU issued
system.cpu00.iq.FU_type_0::SimdAlu                  0      0.00%     46.44% # Type of FU issued
system.cpu00.iq.FU_type_0::SimdCmp                  0      0.00%     46.44% # Type of FU issued
system.cpu00.iq.FU_type_0::SimdCvt                  0      0.00%     46.44% # Type of FU issued
system.cpu00.iq.FU_type_0::SimdMisc                 0      0.00%     46.44% # Type of FU issued
system.cpu00.iq.FU_type_0::SimdMult                 0      0.00%     46.44% # Type of FU issued
system.cpu00.iq.FU_type_0::SimdMultAcc              0      0.00%     46.44% # Type of FU issued
system.cpu00.iq.FU_type_0::SimdShift                0      0.00%     46.44% # Type of FU issued
system.cpu00.iq.FU_type_0::SimdShiftAcc             0      0.00%     46.44% # Type of FU issued
system.cpu00.iq.FU_type_0::SimdSqrt                 0      0.00%     46.44% # Type of FU issued
system.cpu00.iq.FU_type_0::SimdFloatAdd             0      0.00%     46.44% # Type of FU issued
system.cpu00.iq.FU_type_0::SimdFloatAlu             0      0.00%     46.44% # Type of FU issued
system.cpu00.iq.FU_type_0::SimdFloatCmp             0      0.00%     46.44% # Type of FU issued
system.cpu00.iq.FU_type_0::SimdFloatCvt             0      0.00%     46.44% # Type of FU issued
system.cpu00.iq.FU_type_0::SimdFloatDiv             0      0.00%     46.44% # Type of FU issued
system.cpu00.iq.FU_type_0::SimdFloatMisc            0      0.00%     46.44% # Type of FU issued
system.cpu00.iq.FU_type_0::SimdFloatMult            0      0.00%     46.44% # Type of FU issued
system.cpu00.iq.FU_type_0::SimdFloatMultAcc            0      0.00%     46.44% # Type of FU issued
system.cpu00.iq.FU_type_0::SimdFloatSqrt            0      0.00%     46.44% # Type of FU issued
system.cpu00.iq.FU_type_0::MemRead            5873269     48.13%     94.57% # Type of FU issued
system.cpu00.iq.FU_type_0::MemWrite            662455      5.43%    100.00% # Type of FU issued
system.cpu00.iq.FU_type_0::IprAccess                0      0.00%    100.00% # Type of FU issued
system.cpu00.iq.FU_type_0::InstPrefetch             0      0.00%    100.00% # Type of FU issued
system.cpu00.iq.FU_type_0::total             12201751                       # Type of FU issued
system.cpu00.iq.rate                         0.623890                       # Inst issue rate
system.cpu00.iq.fu_busy_cnt                   1037826                       # FU busy when requested
system.cpu00.iq.fu_busy_rate                 0.085055                       # FU busy rate (busy events/executed inst)
system.cpu00.iq.int_inst_queue_reads         27121173                       # Number of integer instruction queue reads
system.cpu00.iq.int_inst_queue_writes         3803648                       # Number of integer instruction queue writes
system.cpu00.iq.int_inst_queue_wakeup_accesses      3301276                       # Number of integer instruction queue wakeup accesses
system.cpu00.iq.fp_inst_queue_reads          17436156                       # Number of floating instruction queue reads
system.cpu00.iq.fp_inst_queue_writes          5371848                       # Number of floating instruction queue writes
system.cpu00.iq.fp_inst_queue_wakeup_accesses      5272060                       # Number of floating instruction queue wakeup accesses
system.cpu00.iq.int_alu_accesses              4089210                       # Number of integer alu accesses
system.cpu00.iq.fp_alu_accesses               9150367                       # Number of floating point alu accesses
system.cpu00.iew.lsq.thread0.forwLoads          37913                       # Number of loads that had data forwarded from stores
system.cpu00.iew.lsq.thread0.invAddrLoads            0                       # Number of loads ignored due to an invalid address
system.cpu00.iew.lsq.thread0.squashedLoads        95951                       # Number of loads squashed
system.cpu00.iew.lsq.thread0.ignoredResponses          184                       # Number of memory responses ignored because the instruction is squashed
system.cpu00.iew.lsq.thread0.memOrderViolation         1755                       # Number of memory ordering violations
system.cpu00.iew.lsq.thread0.squashedStores        64339                       # Number of stores squashed
system.cpu00.iew.lsq.thread0.invAddrSwpfs            0                       # Number of software prefetches ignored due to an invalid address
system.cpu00.iew.lsq.thread0.blockedLoads            0                       # Number of blocked loads due to partial load-store forwarding
system.cpu00.iew.lsq.thread0.rescheduledLoads         1076                       # Number of loads that were rescheduled
system.cpu00.iew.lsq.thread0.cacheBlocked      3700040                       # Number of times an access to memory failed due to the cache being blocked
system.cpu00.iew.iewIdleCycles                      0                       # Number of cycles IEW is idle
system.cpu00.iew.iewSquashCycles                12274                       # Number of cycles IEW is squashing
system.cpu00.iew.iewBlockCycles               6977447                       # Number of cycles IEW is blocking
system.cpu00.iew.iewUnblockCycles             3662198                       # Number of cycles IEW is unblocking
system.cpu00.iew.iewDispatchedInsts           8900480                       # Number of instructions dispatched to IQ
system.cpu00.iew.iewDispSquashedInsts            2011                       # Number of squashed instructions skipped by dispatch
system.cpu00.iew.iewDispLoadInsts             2317040                       # Number of dispatched load instructions
system.cpu00.iew.iewDispStoreInsts             690259                       # Number of dispatched store instructions
system.cpu00.iew.iewDispNonSpecInsts            12718                       # Number of dispatched non-speculative instructions
system.cpu00.iew.iewIQFullEvents               116902                       # Number of times the IQ has become full, causing a stall
system.cpu00.iew.iewLSQFullEvents             3433418                       # Number of times the LSQ has become full, causing a stall
system.cpu00.iew.memOrderViolationEvents         1755                       # Number of memory order violations
system.cpu00.iew.predictedTakenIncorrect         4135                       # Number of branches that were predicted taken incorrectly
system.cpu00.iew.predictedNotTakenIncorrect         5770                       # Number of branches that were predicted not taken incorrectly
system.cpu00.iew.branchMispredicts               9905                       # Number of branch mispredicts detected at execute
system.cpu00.iew.iewExecutedInsts            12185052                       # Number of executed instructions
system.cpu00.iew.iewExecLoadInsts             5861773                       # Number of load instructions executed
system.cpu00.iew.iewExecSquashedInsts           16699                       # Number of squashed instructions skipped in execute
system.cpu00.iew.exec_swp                           0                       # number of swp insts executed
system.cpu00.iew.exec_nop                      143722                       # number of nop insts executed
system.cpu00.iew.exec_refs                    6521636                       # number of memory reference insts executed
system.cpu00.iew.exec_branches                 499465                       # Number of branches executed
system.cpu00.iew.exec_stores                   659863                       # Number of stores executed
system.cpu00.iew.exec_rate                   0.623036                       # Inst execution rate
system.cpu00.iew.wb_sent                      8596381                       # cumulative count of insts sent to commit
system.cpu00.iew.wb_count                     8573336                       # cumulative count of insts written-back
system.cpu00.iew.wb_producers                 5813913                       # num instructions producing a value
system.cpu00.iew.wb_consumers                 7326039                       # num instructions consuming a value
system.cpu00.iew.wb_rate                     0.438365                       # insts written-back per cycle
system.cpu00.iew.wb_fanout                   0.793596                       # average fanout of values written-back
system.cpu00.commit.commitSquashedInsts        418029                       # The number of squashed insts skipped by commit
system.cpu00.commit.commitNonSpecStalls         16889                       # The number of times commit has been forced to stall to communicate backwards
system.cpu00.commit.branchMispredicts            8680                       # The number of times a branch was mispredicted
system.cpu00.commit.committed_per_cycle::samples     19044115                       # Number of insts commited each cycle
system.cpu00.commit.committed_per_cycle::mean     0.444727                       # Number of insts commited each cycle
system.cpu00.commit.committed_per_cycle::stdev     1.605890                       # Number of insts commited each cycle
system.cpu00.commit.committed_per_cycle::underflows            0      0.00%      0.00% # Number of insts commited each cycle
system.cpu00.commit.committed_per_cycle::0     17129829     89.95%     89.95% # Number of insts commited each cycle
system.cpu00.commit.committed_per_cycle::1       425647      2.24%     92.18% # Number of insts commited each cycle
system.cpu00.commit.committed_per_cycle::2       293588      1.54%     93.72% # Number of insts commited each cycle
system.cpu00.commit.committed_per_cycle::3       195029      1.02%     94.75% # Number of insts commited each cycle
system.cpu00.commit.committed_per_cycle::4       136129      0.71%     95.46% # Number of insts commited each cycle
system.cpu00.commit.committed_per_cycle::5       106570      0.56%     96.02% # Number of insts commited each cycle
system.cpu00.commit.committed_per_cycle::6        89700      0.47%     96.49% # Number of insts commited each cycle
system.cpu00.commit.committed_per_cycle::7        85037      0.45%     96.94% # Number of insts commited each cycle
system.cpu00.commit.committed_per_cycle::8       582586      3.06%    100.00% # Number of insts commited each cycle
system.cpu00.commit.committed_per_cycle::overflows            0      0.00%    100.00% # Number of insts commited each cycle
system.cpu00.commit.committed_per_cycle::min_value            0                       # Number of insts commited each cycle
system.cpu00.commit.committed_per_cycle::max_value            8                       # Number of insts commited each cycle
system.cpu00.commit.committed_per_cycle::total     19044115                       # Number of insts commited each cycle
system.cpu00.commit.committedInsts            8469423                       # Number of instructions committed
system.cpu00.commit.committedOps              8469423                       # Number of ops (including micro ops) committed
system.cpu00.commit.swp_count                       0                       # Number of s/w prefetches committed
system.cpu00.commit.refs                      2847009                       # Number of memory references committed
system.cpu00.commit.loads                     2221089                       # Number of loads committed
system.cpu00.commit.membars                      5497                       # Number of memory barriers committed
system.cpu00.commit.branches                   465826                       # Number of branches committed
system.cpu00.commit.fp_insts                  5254312                       # Number of committed floating point instructions.
system.cpu00.commit.int_insts                 5444108                       # Number of committed integer instructions.
system.cpu00.commit.function_calls              33964                       # Number of function calls committed.
system.cpu00.commit.op_class_0::No_OpClass       129678      1.53%      1.53% # Class of committed instruction
system.cpu00.commit.op_class_0::IntAlu        2495208     29.46%     30.99% # Class of committed instruction
system.cpu00.commit.op_class_0::IntMult           772      0.01%     31.00% # Class of committed instruction
system.cpu00.commit.op_class_0::IntDiv              0      0.00%     31.00% # Class of committed instruction
system.cpu00.commit.op_class_0::FloatAdd      2131333     25.17%     56.17% # Class of committed instruction
system.cpu00.commit.op_class_0::FloatCmp       114742      1.35%     57.52% # Class of committed instruction
system.cpu00.commit.op_class_0::FloatCvt            0      0.00%     57.52% # Class of committed instruction
system.cpu00.commit.op_class_0::FloatMult       736169      8.69%     66.21% # Class of committed instruction
system.cpu00.commit.op_class_0::FloatDiv         9014      0.11%     66.32% # Class of committed instruction
system.cpu00.commit.op_class_0::FloatSqrt            0      0.00%     66.32% # Class of committed instruction
system.cpu00.commit.op_class_0::SimdAdd             0      0.00%     66.32% # Class of committed instruction
system.cpu00.commit.op_class_0::SimdAddAcc            0      0.00%     66.32% # Class of committed instruction
system.cpu00.commit.op_class_0::SimdAlu             0      0.00%     66.32% # Class of committed instruction
system.cpu00.commit.op_class_0::SimdCmp             0      0.00%     66.32% # Class of committed instruction
system.cpu00.commit.op_class_0::SimdCvt             0      0.00%     66.32% # Class of committed instruction
system.cpu00.commit.op_class_0::SimdMisc            0      0.00%     66.32% # Class of committed instruction
system.cpu00.commit.op_class_0::SimdMult            0      0.00%     66.32% # Class of committed instruction
system.cpu00.commit.op_class_0::SimdMultAcc            0      0.00%     66.32% # Class of committed instruction
system.cpu00.commit.op_class_0::SimdShift            0      0.00%     66.32% # Class of committed instruction
system.cpu00.commit.op_class_0::SimdShiftAcc            0      0.00%     66.32% # Class of committed instruction
system.cpu00.commit.op_class_0::SimdSqrt            0      0.00%     66.32% # Class of committed instruction
system.cpu00.commit.op_class_0::SimdFloatAdd            0      0.00%     66.32% # Class of committed instruction
system.cpu00.commit.op_class_0::SimdFloatAlu            0      0.00%     66.32% # Class of committed instruction
system.cpu00.commit.op_class_0::SimdFloatCmp            0      0.00%     66.32% # Class of committed instruction
system.cpu00.commit.op_class_0::SimdFloatCvt            0      0.00%     66.32% # Class of committed instruction
system.cpu00.commit.op_class_0::SimdFloatDiv            0      0.00%     66.32% # Class of committed instruction
system.cpu00.commit.op_class_0::SimdFloatMisc            0      0.00%     66.32% # Class of committed instruction
system.cpu00.commit.op_class_0::SimdFloatMult            0      0.00%     66.32% # Class of committed instruction
system.cpu00.commit.op_class_0::SimdFloatMultAcc            0      0.00%     66.32% # Class of committed instruction
system.cpu00.commit.op_class_0::SimdFloatSqrt            0      0.00%     66.32% # Class of committed instruction
system.cpu00.commit.op_class_0::MemRead       2226586     26.29%     92.61% # Class of committed instruction
system.cpu00.commit.op_class_0::MemWrite       625921      7.39%    100.00% # Class of committed instruction
system.cpu00.commit.op_class_0::IprAccess            0      0.00%    100.00% # Class of committed instruction
system.cpu00.commit.op_class_0::InstPrefetch            0      0.00%    100.00% # Class of committed instruction
system.cpu00.commit.op_class_0::total         8469423                       # Class of committed instruction
system.cpu00.commit.bw_lim_events              582586                       # number cycles where commit BW limit reached
system.cpu00.rob.rob_reads                   27315506                       # The number of ROB reads
system.cpu00.rob.rob_writes                  17835690                       # The number of ROB writes
system.cpu00.timesIdled                          9576                       # Number of times that the entire CPU went into an idle state and unscheduled itself
system.cpu00.idleCycles                        450116                       # Total number of cycles that the CPU has spent unscheduled due to idling
system.cpu00.quiesceCycles                    1024585                       # Total number of cycles that CPU has spent quiesced or waiting for an interrupt
system.cpu00.committedInsts                   8339745                       # Number of Instructions Simulated
system.cpu00.committedOps                     8339745                       # Number of Ops (including micro ops) Simulated
system.cpu00.cpi                             2.345101                       # CPI: Cycles Per Instruction
system.cpu00.cpi_total                       2.345101                       # CPI: Total CPI of All Threads
system.cpu00.ipc                             0.426421                       # IPC: Instructions Per Cycle
system.cpu00.ipc_total                       0.426421                       # IPC: Total IPC of All Threads
system.cpu00.int_regfile_reads               10249186                       # number of integer regfile reads
system.cpu00.int_regfile_writes               2324366                       # number of integer regfile writes
system.cpu00.fp_regfile_reads                 6291049                       # number of floating regfile reads
system.cpu00.fp_regfile_writes                4702701                       # number of floating regfile writes
system.cpu00.misc_regfile_reads                 30869                       # number of misc regfile reads
system.cpu00.misc_regfile_writes                13952                       # number of misc regfile writes
system.cpu00.dcache.tags.replacements          337695                       # number of replacements
system.cpu00.dcache.tags.tagsinuse          63.550753                       # Cycle average of tags in use
system.cpu00.dcache.tags.total_refs           1770254                       # Total number of references to valid blocks.
system.cpu00.dcache.tags.sampled_refs          337759                       # Sample count of references to valid blocks.
system.cpu00.dcache.tags.avg_refs            5.241175                       # Average number of references to valid blocks.
system.cpu00.dcache.tags.warmup_cycle        72188658                       # Cycle when the warmup percentage was hit.
system.cpu00.dcache.tags.occ_blocks::cpu00.data    63.550753                       # Average occupied blocks per requestor
system.cpu00.dcache.tags.occ_percent::cpu00.data     0.992981                       # Average percentage of cache occupancy
system.cpu00.dcache.tags.occ_percent::total     0.992981                       # Average percentage of cache occupancy
system.cpu00.dcache.tags.occ_task_id_blocks::1024           64                       # Occupied blocks per task id
system.cpu00.dcache.tags.age_task_id_blocks_1024::0           48                       # Occupied blocks per task id
system.cpu00.dcache.tags.age_task_id_blocks_1024::1           16                       # Occupied blocks per task id
system.cpu00.dcache.tags.occ_task_id_percent::1024            1                       # Percentage of cache occupancy per task id
system.cpu00.dcache.tags.tag_accesses         6065924                       # Number of tag accesses
system.cpu00.dcache.tags.data_accesses        6065924                       # Number of data accesses
system.cpu00.dcache.ReadReq_hits::cpu00.data      1420908                       # number of ReadReq hits
system.cpu00.dcache.ReadReq_hits::total       1420908                       # number of ReadReq hits
system.cpu00.dcache.WriteReq_hits::cpu00.data       327475                       # number of WriteReq hits
system.cpu00.dcache.WriteReq_hits::total       327475                       # number of WriteReq hits
system.cpu00.dcache.LoadLockedReq_hits::cpu00.data         6229                       # number of LoadLockedReq hits
system.cpu00.dcache.LoadLockedReq_hits::total         6229                       # number of LoadLockedReq hits
system.cpu00.dcache.StoreCondReq_hits::cpu00.data         6969                       # number of StoreCondReq hits
system.cpu00.dcache.StoreCondReq_hits::total         6969                       # number of StoreCondReq hits
system.cpu00.dcache.demand_hits::cpu00.data      1748383                       # number of demand (read+write) hits
system.cpu00.dcache.demand_hits::total        1748383                       # number of demand (read+write) hits
system.cpu00.dcache.overall_hits::cpu00.data      1748383                       # number of overall hits
system.cpu00.dcache.overall_hits::total       1748383                       # number of overall hits
system.cpu00.dcache.ReadReq_misses::cpu00.data       806844                       # number of ReadReq misses
system.cpu00.dcache.ReadReq_misses::total       806844                       # number of ReadReq misses
system.cpu00.dcache.WriteReq_misses::cpu00.data       291472                       # number of WriteReq misses
system.cpu00.dcache.WriteReq_misses::total       291472                       # number of WriteReq misses
system.cpu00.dcache.LoadLockedReq_misses::cpu00.data          834                       # number of LoadLockedReq misses
system.cpu00.dcache.LoadLockedReq_misses::total          834                       # number of LoadLockedReq misses
system.cpu00.dcache.StoreCondReq_misses::cpu00.data            3                       # number of StoreCondReq misses
system.cpu00.dcache.StoreCondReq_misses::total            3                       # number of StoreCondReq misses
system.cpu00.dcache.demand_misses::cpu00.data      1098316                       # number of demand (read+write) misses
system.cpu00.dcache.demand_misses::total      1098316                       # number of demand (read+write) misses
system.cpu00.dcache.overall_misses::cpu00.data      1098316                       # number of overall misses
system.cpu00.dcache.overall_misses::total      1098316                       # number of overall misses
system.cpu00.dcache.ReadReq_miss_latency::cpu00.data 116801596944                       # number of ReadReq miss cycles
system.cpu00.dcache.ReadReq_miss_latency::total 116801596944                       # number of ReadReq miss cycles
system.cpu00.dcache.WriteReq_miss_latency::cpu00.data  61771053563                       # number of WriteReq miss cycles
system.cpu00.dcache.WriteReq_miss_latency::total  61771053563                       # number of WriteReq miss cycles
system.cpu00.dcache.LoadLockedReq_miss_latency::cpu00.data     10346832                       # number of LoadLockedReq miss cycles
system.cpu00.dcache.LoadLockedReq_miss_latency::total     10346832                       # number of LoadLockedReq miss cycles
system.cpu00.dcache.StoreCondReq_miss_latency::cpu00.data        32508                       # number of StoreCondReq miss cycles
system.cpu00.dcache.StoreCondReq_miss_latency::total        32508                       # number of StoreCondReq miss cycles
system.cpu00.dcache.demand_miss_latency::cpu00.data 178572650507                       # number of demand (read+write) miss cycles
system.cpu00.dcache.demand_miss_latency::total 178572650507                       # number of demand (read+write) miss cycles
system.cpu00.dcache.overall_miss_latency::cpu00.data 178572650507                       # number of overall miss cycles
system.cpu00.dcache.overall_miss_latency::total 178572650507                       # number of overall miss cycles
system.cpu00.dcache.ReadReq_accesses::cpu00.data      2227752                       # number of ReadReq accesses(hits+misses)
system.cpu00.dcache.ReadReq_accesses::total      2227752                       # number of ReadReq accesses(hits+misses)
system.cpu00.dcache.WriteReq_accesses::cpu00.data       618947                       # number of WriteReq accesses(hits+misses)
system.cpu00.dcache.WriteReq_accesses::total       618947                       # number of WriteReq accesses(hits+misses)
system.cpu00.dcache.LoadLockedReq_accesses::cpu00.data         7063                       # number of LoadLockedReq accesses(hits+misses)
system.cpu00.dcache.LoadLockedReq_accesses::total         7063                       # number of LoadLockedReq accesses(hits+misses)
system.cpu00.dcache.StoreCondReq_accesses::cpu00.data         6972                       # number of StoreCondReq accesses(hits+misses)
system.cpu00.dcache.StoreCondReq_accesses::total         6972                       # number of StoreCondReq accesses(hits+misses)
system.cpu00.dcache.demand_accesses::cpu00.data      2846699                       # number of demand (read+write) accesses
system.cpu00.dcache.demand_accesses::total      2846699                       # number of demand (read+write) accesses
system.cpu00.dcache.overall_accesses::cpu00.data      2846699                       # number of overall (read+write) accesses
system.cpu00.dcache.overall_accesses::total      2846699                       # number of overall (read+write) accesses
system.cpu00.dcache.ReadReq_miss_rate::cpu00.data     0.362179                       # miss rate for ReadReq accesses
system.cpu00.dcache.ReadReq_miss_rate::total     0.362179                       # miss rate for ReadReq accesses
system.cpu00.dcache.WriteReq_miss_rate::cpu00.data     0.470916                       # miss rate for WriteReq accesses
system.cpu00.dcache.WriteReq_miss_rate::total     0.470916                       # miss rate for WriteReq accesses
system.cpu00.dcache.LoadLockedReq_miss_rate::cpu00.data     0.118080                       # miss rate for LoadLockedReq accesses
system.cpu00.dcache.LoadLockedReq_miss_rate::total     0.118080                       # miss rate for LoadLockedReq accesses
system.cpu00.dcache.StoreCondReq_miss_rate::cpu00.data     0.000430                       # miss rate for StoreCondReq accesses
system.cpu00.dcache.StoreCondReq_miss_rate::total     0.000430                       # miss rate for StoreCondReq accesses
system.cpu00.dcache.demand_miss_rate::cpu00.data     0.385821                       # miss rate for demand accesses
system.cpu00.dcache.demand_miss_rate::total     0.385821                       # miss rate for demand accesses
system.cpu00.dcache.overall_miss_rate::cpu00.data     0.385821                       # miss rate for overall accesses
system.cpu00.dcache.overall_miss_rate::total     0.385821                       # miss rate for overall accesses
system.cpu00.dcache.ReadReq_avg_miss_latency::cpu00.data 144763.544061                       # average ReadReq miss latency
system.cpu00.dcache.ReadReq_avg_miss_latency::total 144763.544061                       # average ReadReq miss latency
system.cpu00.dcache.WriteReq_avg_miss_latency::cpu00.data 211927.916105                       # average WriteReq miss latency
system.cpu00.dcache.WriteReq_avg_miss_latency::total 211927.916105                       # average WriteReq miss latency
system.cpu00.dcache.LoadLockedReq_avg_miss_latency::cpu00.data 12406.273381                       # average LoadLockedReq miss latency
system.cpu00.dcache.LoadLockedReq_avg_miss_latency::total 12406.273381                       # average LoadLockedReq miss latency
system.cpu00.dcache.StoreCondReq_avg_miss_latency::cpu00.data        10836                       # average StoreCondReq miss latency
system.cpu00.dcache.StoreCondReq_avg_miss_latency::total        10836                       # average StoreCondReq miss latency
system.cpu00.dcache.demand_avg_miss_latency::cpu00.data 162587.680146                       # average overall miss latency
system.cpu00.dcache.demand_avg_miss_latency::total 162587.680146                       # average overall miss latency
system.cpu00.dcache.overall_avg_miss_latency::cpu00.data 162587.680146                       # average overall miss latency
system.cpu00.dcache.overall_avg_miss_latency::total 162587.680146                       # average overall miss latency
system.cpu00.dcache.blocked_cycles::no_mshrs      8890604                       # number of cycles access was blocked
system.cpu00.dcache.blocked_cycles::no_targets           42                       # number of cycles access was blocked
system.cpu00.dcache.blocked::no_mshrs          240362                       # number of cycles access was blocked
system.cpu00.dcache.blocked::no_targets             1                       # number of cycles access was blocked
system.cpu00.dcache.avg_blocked_cycles::no_mshrs    36.988393                       # average number of cycles each access was blocked
system.cpu00.dcache.avg_blocked_cycles::no_targets           42                       # average number of cycles each access was blocked
system.cpu00.dcache.fast_writes                     0                       # number of fast writes performed
system.cpu00.dcache.cache_copies                    0                       # number of cache copies performed
system.cpu00.dcache.writebacks::writebacks       227828                       # number of writebacks
system.cpu00.dcache.writebacks::total          227828                       # number of writebacks
system.cpu00.dcache.ReadReq_mshr_hits::cpu00.data       530655                       # number of ReadReq MSHR hits
system.cpu00.dcache.ReadReq_mshr_hits::total       530655                       # number of ReadReq MSHR hits
system.cpu00.dcache.WriteReq_mshr_hits::cpu00.data       219044                       # number of WriteReq MSHR hits
system.cpu00.dcache.WriteReq_mshr_hits::total       219044                       # number of WriteReq MSHR hits
system.cpu00.dcache.LoadLockedReq_mshr_hits::cpu00.data          446                       # number of LoadLockedReq MSHR hits
system.cpu00.dcache.LoadLockedReq_mshr_hits::total          446                       # number of LoadLockedReq MSHR hits
system.cpu00.dcache.demand_mshr_hits::cpu00.data       749699                       # number of demand (read+write) MSHR hits
system.cpu00.dcache.demand_mshr_hits::total       749699                       # number of demand (read+write) MSHR hits
system.cpu00.dcache.overall_mshr_hits::cpu00.data       749699                       # number of overall MSHR hits
system.cpu00.dcache.overall_mshr_hits::total       749699                       # number of overall MSHR hits
system.cpu00.dcache.ReadReq_mshr_misses::cpu00.data       276189                       # number of ReadReq MSHR misses
system.cpu00.dcache.ReadReq_mshr_misses::total       276189                       # number of ReadReq MSHR misses
system.cpu00.dcache.WriteReq_mshr_misses::cpu00.data        72428                       # number of WriteReq MSHR misses
system.cpu00.dcache.WriteReq_mshr_misses::total        72428                       # number of WriteReq MSHR misses
system.cpu00.dcache.LoadLockedReq_mshr_misses::cpu00.data          388                       # number of LoadLockedReq MSHR misses
system.cpu00.dcache.LoadLockedReq_mshr_misses::total          388                       # number of LoadLockedReq MSHR misses
system.cpu00.dcache.StoreCondReq_mshr_misses::cpu00.data            3                       # number of StoreCondReq MSHR misses
system.cpu00.dcache.StoreCondReq_mshr_misses::total            3                       # number of StoreCondReq MSHR misses
system.cpu00.dcache.demand_mshr_misses::cpu00.data       348617                       # number of demand (read+write) MSHR misses
system.cpu00.dcache.demand_mshr_misses::total       348617                       # number of demand (read+write) MSHR misses
system.cpu00.dcache.overall_mshr_misses::cpu00.data       348617                       # number of overall MSHR misses
system.cpu00.dcache.overall_mshr_misses::total       348617                       # number of overall MSHR misses
system.cpu00.dcache.ReadReq_mshr_miss_latency::cpu00.data  51571269378                       # number of ReadReq MSHR miss cycles
system.cpu00.dcache.ReadReq_mshr_miss_latency::total  51571269378                       # number of ReadReq MSHR miss cycles
system.cpu00.dcache.WriteReq_mshr_miss_latency::cpu00.data  16820035397                       # number of WriteReq MSHR miss cycles
system.cpu00.dcache.WriteReq_mshr_miss_latency::total  16820035397                       # number of WriteReq MSHR miss cycles
system.cpu00.dcache.LoadLockedReq_mshr_miss_latency::cpu00.data      5528682                       # number of LoadLockedReq MSHR miss cycles
system.cpu00.dcache.LoadLockedReq_mshr_miss_latency::total      5528682                       # number of LoadLockedReq MSHR miss cycles
system.cpu00.dcache.StoreCondReq_mshr_miss_latency::cpu00.data        29025                       # number of StoreCondReq MSHR miss cycles
system.cpu00.dcache.StoreCondReq_mshr_miss_latency::total        29025                       # number of StoreCondReq MSHR miss cycles
system.cpu00.dcache.demand_mshr_miss_latency::cpu00.data  68391304775                       # number of demand (read+write) MSHR miss cycles
system.cpu00.dcache.demand_mshr_miss_latency::total  68391304775                       # number of demand (read+write) MSHR miss cycles
system.cpu00.dcache.overall_mshr_miss_latency::cpu00.data  68391304775                       # number of overall MSHR miss cycles
system.cpu00.dcache.overall_mshr_miss_latency::total  68391304775                       # number of overall MSHR miss cycles
system.cpu00.dcache.ReadReq_mshr_miss_rate::cpu00.data     0.123977                       # mshr miss rate for ReadReq accesses
system.cpu00.dcache.ReadReq_mshr_miss_rate::total     0.123977                       # mshr miss rate for ReadReq accesses
system.cpu00.dcache.WriteReq_mshr_miss_rate::cpu00.data     0.117018                       # mshr miss rate for WriteReq accesses
system.cpu00.dcache.WriteReq_mshr_miss_rate::total     0.117018                       # mshr miss rate for WriteReq accesses
system.cpu00.dcache.LoadLockedReq_mshr_miss_rate::cpu00.data     0.054934                       # mshr miss rate for LoadLockedReq accesses
system.cpu00.dcache.LoadLockedReq_mshr_miss_rate::total     0.054934                       # mshr miss rate for LoadLockedReq accesses
system.cpu00.dcache.StoreCondReq_mshr_miss_rate::cpu00.data     0.000430                       # mshr miss rate for StoreCondReq accesses
system.cpu00.dcache.StoreCondReq_mshr_miss_rate::total     0.000430                       # mshr miss rate for StoreCondReq accesses
system.cpu00.dcache.demand_mshr_miss_rate::cpu00.data     0.122464                       # mshr miss rate for demand accesses
system.cpu00.dcache.demand_mshr_miss_rate::total     0.122464                       # mshr miss rate for demand accesses
system.cpu00.dcache.overall_mshr_miss_rate::cpu00.data     0.122464                       # mshr miss rate for overall accesses
system.cpu00.dcache.overall_mshr_miss_rate::total     0.122464                       # mshr miss rate for overall accesses
system.cpu00.dcache.ReadReq_avg_mshr_miss_latency::cpu00.data 186724.559552                       # average ReadReq mshr miss latency
system.cpu00.dcache.ReadReq_avg_mshr_miss_latency::total 186724.559552                       # average ReadReq mshr miss latency
system.cpu00.dcache.WriteReq_avg_mshr_miss_latency::cpu00.data 232231.117758                       # average WriteReq mshr miss latency
[...]
system.tol2bus.pkt_count_system.cpu06.dcache.mem_side::system.l2.cpu_side       946187                       # Packet count per connected master and slave (bytes)
system.tol2bus.pkt_count_system.cpu07.icache.mem_side::system.l2.cpu_side        10276                       # Packet count per connected master and slave (bytes)
system.tol2bus.pkt_count_system.cpu07.dcache.mem_side::system.l2.cpu_side       941190                       # Packet count per connected master and slave (bytes)
system.tol2bus.pkt_count_system.cpu08.icache.mem_side::system.l2.cpu_side        11917                       # Packet count per connected master and slave (bytes)
system.tol2bus.pkt_count_system.cpu08.dcache.mem_side::system.l2.cpu_side       941366                       # Packet count per connected master and slave (bytes)
system.tol2bus.pkt_count_system.cpu09.icache.mem_side::system.l2.cpu_side        11431                       # Packet count per connected master and slave (bytes)
system.tol2bus.pkt_count_system.cpu09.dcache.mem_side::system.l2.cpu_side       932512                       # Packet count per connected master and slave (bytes)
system.tol2bus.pkt_count_system.cpu10.icache.mem_side::system.l2.cpu_side        10273                       # Packet count per connected master and slave (bytes)
system.tol2bus.pkt_count_system.cpu10.dcache.mem_side::system.l2.cpu_side       939632                       # Packet count per connected master and slave (bytes)
system.tol2bus.pkt_count_system.cpu11.icache.mem_side::system.l2.cpu_side        10186                       # Packet count per connected master and slave (bytes)
system.tol2bus.pkt_count_system.cpu11.dcache.mem_side::system.l2.cpu_side       940474                       # Packet count per connected master and slave (bytes)
system.tol2bus.pkt_count_system.cpu12.icache.mem_side::system.l2.cpu_side        11800                       # Packet count per connected master and slave (bytes)
system.tol2bus.pkt_count_system.cpu12.dcache.mem_side::system.l2.cpu_side       938584                       # Packet count per connected master and slave (bytes)
system.tol2bus.pkt_count_system.cpu13.icache.mem_side::system.l2.cpu_side        12193                       # Packet count per connected master and slave (bytes)
system.tol2bus.pkt_count_system.cpu13.dcache.mem_side::system.l2.cpu_side       924634                       # Packet count per connected master and slave (bytes)
system.tol2bus.pkt_count_system.cpu14.icache.mem_side::system.l2.cpu_side        11281                       # Packet count per connected master and slave (bytes)
system.tol2bus.pkt_count_system.cpu14.dcache.mem_side::system.l2.cpu_side       939061                       # Packet count per connected master and slave (bytes)
system.tol2bus.pkt_count_system.cpu15.icache.mem_side::system.l2.cpu_side        13012                       # Packet count per connected master and slave (bytes)
system.tol2bus.pkt_count_system.cpu15.dcache.mem_side::system.l2.cpu_side       927555                       # Packet count per connected master and slave (bytes)
system.tol2bus.pkt_count::total              15263197                       # Packet count per connected master and slave (bytes)
system.tol2bus.pkt_size_system.cpu00.icache.mem_side::system.l2.cpu_side      1536000                       # Cumulative packet size per connected master and slave (bytes)
system.tol2bus.pkt_size_system.cpu00.dcache.mem_side::system.l2.cpu_side     35629504                       # Cumulative packet size per connected master and slave (bytes)
system.tol2bus.pkt_size_system.cpu01.icache.mem_side::system.l2.cpu_side       530048                       # Cumulative packet size per connected master and slave (bytes)
system.tol2bus.pkt_size_system.cpu01.dcache.mem_side::system.l2.cpu_side     32563584                       # Cumulative packet size per connected master and slave (bytes)
system.tol2bus.pkt_size_system.cpu02.icache.mem_side::system.l2.cpu_side       458368                       # Cumulative packet size per connected master and slave (bytes)
system.tol2bus.pkt_size_system.cpu02.dcache.mem_side::system.l2.cpu_side     32747520                       # Cumulative packet size per connected master and slave (bytes)
system.tol2bus.pkt_size_system.cpu03.icache.mem_side::system.l2.cpu_side       460672                       # Cumulative packet size per connected master and slave (bytes)
system.tol2bus.pkt_size_system.cpu03.dcache.mem_side::system.l2.cpu_side     32661952                       # Cumulative packet size per connected master and slave (bytes)
system.tol2bus.pkt_size_system.cpu04.icache.mem_side::system.l2.cpu_side       531584                       # Cumulative packet size per connected master and slave (bytes)
system.tol2bus.pkt_size_system.cpu04.dcache.mem_side::system.l2.cpu_side     32693376                       # Cumulative packet size per connected master and slave (bytes)
system.tol2bus.pkt_size_system.cpu05.icache.mem_side::system.l2.cpu_side       478208                       # Cumulative packet size per connected master and slave (bytes)
system.tol2bus.pkt_size_system.cpu05.dcache.mem_side::system.l2.cpu_side     32737920                       # Cumulative packet size per connected master and slave (bytes)
system.tol2bus.pkt_size_system.cpu06.icache.mem_side::system.l2.cpu_side       429184                       # Cumulative packet size per connected master and slave (bytes)
system.tol2bus.pkt_size_system.cpu06.dcache.mem_side::system.l2.cpu_side     32882304                       # Cumulative packet size per connected master and slave (bytes)
system.tol2bus.pkt_size_system.cpu07.icache.mem_side::system.l2.cpu_side       427520                       # Cumulative packet size per connected master and slave (bytes)
system.tol2bus.pkt_size_system.cpu07.dcache.mem_side::system.l2.cpu_side     32950464                       # Cumulative packet size per connected master and slave (bytes)
system.tol2bus.pkt_size_system.cpu08.icache.mem_side::system.l2.cpu_side       497536                       # Cumulative packet size per connected master and slave (bytes)
system.tol2bus.pkt_size_system.cpu08.dcache.mem_side::system.l2.cpu_side     33119616                       # Cumulative packet size per connected master and slave (bytes)
system.tol2bus.pkt_size_system.cpu09.icache.mem_side::system.l2.cpu_side       476800                       # Cumulative packet size per connected master and slave (bytes)
system.tol2bus.pkt_size_system.cpu09.dcache.mem_side::system.l2.cpu_side     32767744                       # Cumulative packet size per connected master and slave (bytes)
system.tol2bus.pkt_size_system.cpu10.icache.mem_side::system.l2.cpu_side       427392                       # Cumulative packet size per connected master and slave (bytes)
system.tol2bus.pkt_size_system.cpu10.dcache.mem_side::system.l2.cpu_side     32751744                       # Cumulative packet size per connected master and slave (bytes)
system.tol2bus.pkt_size_system.cpu11.icache.mem_side::system.l2.cpu_side       423680                       # Cumulative packet size per connected master and slave (bytes)
system.tol2bus.pkt_size_system.cpu11.dcache.mem_side::system.l2.cpu_side     33004480                       # Cumulative packet size per connected master and slave (bytes)
system.tol2bus.pkt_size_system.cpu12.icache.mem_side::system.l2.cpu_side       492544                       # Cumulative packet size per connected master and slave (bytes)
system.tol2bus.pkt_size_system.cpu12.dcache.mem_side::system.l2.cpu_side     33055232                       # Cumulative packet size per connected master and slave (bytes)
system.tol2bus.pkt_size_system.cpu13.icache.mem_side::system.l2.cpu_side       509312                       # Cumulative packet size per connected master and slave (bytes)
system.tol2bus.pkt_size_system.cpu13.dcache.mem_side::system.l2.cpu_side     32298304                       # Cumulative packet size per connected master and slave (bytes)
system.tol2bus.pkt_size_system.cpu14.icache.mem_side::system.l2.cpu_side       470400                       # Cumulative packet size per connected master and slave (bytes)
system.tol2bus.pkt_size_system.cpu14.dcache.mem_side::system.l2.cpu_side     32700032                       # Cumulative packet size per connected master and slave (bytes)
system.tol2bus.pkt_size_system.cpu15.icache.mem_side::system.l2.cpu_side       544256                       # Cumulative packet size per connected master and slave (bytes)
system.tol2bus.pkt_size_system.cpu15.dcache.mem_side::system.l2.cpu_side     32701696                       # Cumulative packet size per connected master and slave (bytes)
system.tol2bus.pkt_size::total              535958976                       # Cumulative packet size per connected master and slave (bytes)
system.tol2bus.snoops                          918019                       # Total snoops (count)
system.tol2bus.snoop_fanout::samples          6001941                       # Request fanout histogram
system.tol2bus.snoop_fanout::mean            0.550021                       # Request fanout histogram
system.tol2bus.snoop_fanout::stdev           2.229810                       # Request fanout histogram
system.tol2bus.snoop_fanout::underflows             0      0.00%      0.00% # Request fanout histogram
system.tol2bus.snoop_fanout::0                5301699     88.33%     88.33% # Request fanout histogram
system.tol2bus.snoop_fanout::1                 310545      5.17%     93.51% # Request fanout histogram
system.tol2bus.snoop_fanout::2                  79439      1.32%     94.83% # Request fanout histogram
system.tol2bus.snoop_fanout::3                  34316      0.57%     95.40% # Request fanout histogram
system.tol2bus.snoop_fanout::4                  23971      0.40%     95.80% # Request fanout histogram
system.tol2bus.snoop_fanout::5                  21608      0.36%     96.16% # Request fanout histogram
system.tol2bus.snoop_fanout::6                  20514      0.34%     96.50% # Request fanout histogram
system.tol2bus.snoop_fanout::7                  21169      0.35%     96.86% # Request fanout histogram
system.tol2bus.snoop_fanout::8                  19851      0.33%     97.19% # Request fanout histogram
system.tol2bus.snoop_fanout::9                  19980      0.33%     97.52% # Request fanout histogram
system.tol2bus.snoop_fanout::10                 21022      0.35%     97.87% # Request fanout histogram
system.tol2bus.snoop_fanout::11                 21741      0.36%     98.23% # Request fanout histogram
system.tol2bus.snoop_fanout::12                 20656      0.34%     98.58% # Request fanout histogram
system.tol2bus.snoop_fanout::13                 21403      0.36%     98.93% # Request fanout histogram
system.tol2bus.snoop_fanout::14                 24552      0.41%     99.34% # Request fanout histogram
system.tol2bus.snoop_fanout::15                 35808      0.60%     99.94% # Request fanout histogram
system.tol2bus.snoop_fanout::16                  3667      0.06%    100.00% # Request fanout histogram
system.tol2bus.snoop_fanout::17                     0      0.00%    100.00% # Request fanout histogram
system.tol2bus.snoop_fanout::18                     0      0.00%    100.00% # Request fanout histogram
system.tol2bus.snoop_fanout::19                     0      0.00%    100.00% # Request fanout histogram
system.tol2bus.snoop_fanout::20                     0      0.00%    100.00% # Request fanout histogram
system.tol2bus.snoop_fanout::21                     0      0.00%    100.00% # Request fanout histogram
system.tol2bus.snoop_fanout::22                     0      0.00%    100.00% # Request fanout histogram
system.tol2bus.snoop_fanout::23                     0      0.00%    100.00% # Request fanout histogram
system.tol2bus.snoop_fanout::24                     0      0.00%    100.00% # Request fanout histogram
system.tol2bus.snoop_fanout::25                     0      0.00%    100.00% # Request fanout histogram
system.tol2bus.snoop_fanout::26                     0      0.00%    100.00% # Request fanout histogram
system.tol2bus.snoop_fanout::27                     0      0.00%    100.00% # Request fanout histogram
system.tol2bus.snoop_fanout::28                     0      0.00%    100.00% # Request fanout histogram
system.tol2bus.snoop_fanout::29                     0      0.00%    100.00% # Request fanout histogram
system.tol2bus.snoop_fanout::30                     0      0.00%    100.00% # Request fanout histogram
system.tol2bus.snoop_fanout::31                     0      0.00%    100.00% # Request fanout histogram
system.tol2bus.snoop_fanout::32                     0      0.00%    100.00% # Request fanout histogram
system.tol2bus.snoop_fanout::overflows              0      0.00%    100.00% # Request fanout histogram
system.tol2bus.snoop_fanout::min_value              0                       # Request fanout histogram
system.tol2bus.snoop_fanout::max_value             16                       # Request fanout histogram
system.tol2bus.snoop_fanout::total            6001941                       # Request fanout histogram
system.tol2bus.reqLayer0.occupancy        20250014083                       # Layer occupancy (ticks)
system.tol2bus.reqLayer0.utilization             84.7                       # Layer utilization (%)
system.tol2bus.respLayer0.occupancy          44118827                       # Layer occupancy (ticks)
system.tol2bus.respLayer0.utilization             0.2                       # Layer utilization (%)
system.tol2bus.respLayer1.occupancy        1221997009                       # Layer occupancy (ticks)
system.tol2bus.respLayer1.utilization             5.1                       # Layer utilization (%)
system.tol2bus.respLayer2.occupancy          16452036                       # Layer occupancy (ticks)
system.tol2bus.respLayer2.utilization             0.1                       # Layer utilization (%)
system.tol2bus.respLayer3.occupancy        1106682239                       # Layer occupancy (ticks)
system.tol2bus.respLayer3.utilization             4.6                       # Layer utilization (%)
system.tol2bus.respLayer4.occupancy          14294738                       # Layer occupancy (ticks)
system.tol2bus.respLayer4.utilization             0.1                       # Layer utilization (%)
system.tol2bus.respLayer5.occupancy        1129525202                       # Layer occupancy (ticks)
system.tol2bus.respLayer5.utilization             4.7                       # Layer utilization (%)
system.tol2bus.respLayer6.occupancy          14471163                       # Layer occupancy (ticks)
system.tol2bus.respLayer6.utilization             0.1                       # Layer utilization (%)
system.tol2bus.respLayer7.occupancy        1123296523                       # Layer occupancy (ticks)
system.tol2bus.respLayer7.utilization             4.7                       # Layer utilization (%)
system.tol2bus.respLayer8.occupancy          16486957                       # Layer occupancy (ticks)
system.tol2bus.respLayer8.utilization             0.1                       # Layer utilization (%)
system.tol2bus.respLayer9.occupancy        1106928871                       # Layer occupancy (ticks)
system.tol2bus.respLayer9.utilization             4.6                       # Layer utilization (%)
system.tol2bus.respLayer10.occupancy         14918670                       # Layer occupancy (ticks)
system.tol2bus.respLayer10.utilization            0.1                       # Layer utilization (%)
system.tol2bus.respLayer11.occupancy       1122949279                       # Layer occupancy (ticks)
system.tol2bus.respLayer11.utilization            4.7                       # Layer utilization (%)
system.tol2bus.respLayer12.occupancy         13785271                       # Layer occupancy (ticks)
system.tol2bus.respLayer12.utilization            0.1                       # Layer utilization (%)
system.tol2bus.respLayer13.occupancy       1143192287                       # Layer occupancy (ticks)
system.tol2bus.respLayer13.utilization            4.8                       # Layer utilization (%)
system.tol2bus.respLayer14.occupancy         13729625                       # Layer occupancy (ticks)
system.tol2bus.respLayer14.utilization            0.1                       # Layer utilization (%)
system.tol2bus.respLayer15.occupancy       1135373868                       # Layer occupancy (ticks)
system.tol2bus.respLayer15.utilization            4.8                       # Layer utilization (%)
system.tol2bus.respLayer16.occupancy         15616683                       # Layer occupancy (ticks)
system.tol2bus.respLayer16.utilization            0.1                       # Layer utilization (%)
system.tol2bus.respLayer17.occupancy       1126455133                       # Layer occupancy (ticks)
system.tol2bus.respLayer17.utilization            4.7                       # Layer utilization (%)
system.tol2bus.respLayer18.occupancy         14942796                       # Layer occupancy (ticks)
system.tol2bus.respLayer18.utilization            0.1                       # Layer utilization (%)
system.tol2bus.respLayer19.occupancy       1117244768                       # Layer occupancy (ticks)
system.tol2bus.respLayer19.utilization            4.7                       # Layer utilization (%)
system.tol2bus.respLayer20.occupancy         13780036                       # Layer occupancy (ticks)
system.tol2bus.respLayer20.utilization            0.1                       # Layer utilization (%)
system.tol2bus.respLayer21.occupancy       1136410633                       # Layer occupancy (ticks)
system.tol2bus.respLayer21.utilization            4.8                       # Layer utilization (%)
system.tol2bus.respLayer22.occupancy         13665087                       # Layer occupancy (ticks)
system.tol2bus.respLayer22.utilization            0.1                       # Layer utilization (%)
system.tol2bus.respLayer23.occupancy       1134955386                       # Layer occupancy (ticks)
system.tol2bus.respLayer23.utilization            4.7                       # Layer utilization (%)
system.tol2bus.respLayer24.occupancy         15472482                       # Layer occupancy (ticks)
system.tol2bus.respLayer24.utilization            0.1                       # Layer utilization (%)
system.tol2bus.respLayer25.occupancy       1124620706                       # Layer occupancy (ticks)
system.tol2bus.respLayer25.utilization            4.7                       # Layer utilization (%)
system.tol2bus.respLayer26.occupancy         15949027                       # Layer occupancy (ticks)
system.tol2bus.respLayer26.utilization            0.1                       # Layer utilization (%)
system.tol2bus.respLayer27.occupancy       1105594068                       # Layer occupancy (ticks)
system.tol2bus.respLayer27.utilization            4.6                       # Layer utilization (%)
system.tol2bus.respLayer28.occupancy         14758734                       # Layer occupancy (ticks)
system.tol2bus.respLayer28.utilization            0.1                       # Layer utilization (%)
system.tol2bus.respLayer29.occupancy       1132868450                       # Layer occupancy (ticks)
system.tol2bus.respLayer29.utilization            4.7                       # Layer utilization (%)
system.tol2bus.respLayer30.occupancy         16966400                       # Layer occupancy (ticks)
system.tol2bus.respLayer30.utilization            0.1                       # Layer utilization (%)
system.tol2bus.respLayer31.occupancy       1107617390                       # Layer occupancy (ticks)
system.tol2bus.respLayer31.utilization            4.6                       # Layer utilization (%)

---------- End Simulation Statistics   ----------
