
---------- Begin Simulation Statistics ----------
sim_seconds                                  0.001311                       # Number of seconds simulated
sim_ticks                                  1310814279                       # Number of ticks simulated
final_tick                                 1310814279                       # Number of ticks from beginning of simulation (restored from checkpoints and never reset)
sim_freq                                 1000000000000                       # Frequency of simulated ticks
host_inst_rate                                 217835                       # Simulator instruction rate (inst/s)
host_op_rate                                   217835                       # Simulator op (including micro ops) rate (op/s)
host_tick_rate                              128419278                       # Simulator tick rate (ticks/s)
host_mem_usage                                 694944                       # Number of bytes of host memory used
host_seconds                                    10.21                       # Real time elapsed on the host
sim_insts                                     2223501                       # Number of instructions simulated
sim_ops                                       2223501                       # Number of ops (including micro ops) simulated
system.voltage_domain.voltage                       1                       # Voltage in Volts
system.clk_domain.clock                          1000                       # Clock period in ticks
system.mem_ctrls.bytes_read::cpu00.inst        124480                       # Number of bytes read from this memory
system.mem_ctrls.bytes_read::cpu00.data        378752                       # Number of bytes read from this memory
system.mem_ctrls.bytes_read::cpu01.inst         11392                       # Number of bytes read from this memory
system.mem_ctrls.bytes_read::cpu01.data          7488                       # Number of bytes read from this memory
system.mem_ctrls.bytes_read::cpu02.inst          4416                       # Number of bytes read from this memory
system.mem_ctrls.bytes_read::cpu02.data          7104                       # Number of bytes read from this memory
system.mem_ctrls.bytes_read::cpu03.inst          4096                       # Number of bytes read from this memory
system.mem_ctrls.bytes_read::cpu03.data          6080                       # Number of bytes read from this memory
system.mem_ctrls.bytes_read::cpu04.inst          1600                       # Number of bytes read from this memory
system.mem_ctrls.bytes_read::cpu04.data          7744                       # Number of bytes read from this memory
system.mem_ctrls.bytes_read::cpu05.inst           448                       # Number of bytes read from this memory
system.mem_ctrls.bytes_read::cpu05.data          5888                       # Number of bytes read from this memory
system.mem_ctrls.bytes_read::cpu06.inst           256                       # Number of bytes read from this memory
system.mem_ctrls.bytes_read::cpu06.data          6912                       # Number of bytes read from this memory
system.mem_ctrls.bytes_read::cpu07.inst           320                       # Number of bytes read from this memory
system.mem_ctrls.bytes_read::cpu07.data          6784                       # Number of bytes read from this memory
system.mem_ctrls.bytes_read::cpu08.inst          1344                       # Number of bytes read from this memory
system.mem_ctrls.bytes_read::cpu08.data          5568                       # Number of bytes read from this memory
system.mem_ctrls.bytes_read::cpu09.inst           512                       # Number of bytes read from this memory
system.mem_ctrls.bytes_read::cpu09.data          4736                       # Number of bytes read from this memory
system.mem_ctrls.bytes_read::cpu10.inst          2048                       # Number of bytes read from this memory
system.mem_ctrls.bytes_read::cpu10.data          5760                       # Number of bytes read from this memory
system.mem_ctrls.bytes_read::cpu11.inst          1088                       # Number of bytes read from this memory
system.mem_ctrls.bytes_read::cpu11.data          6464                       # Number of bytes read from this memory
system.mem_ctrls.bytes_read::cpu12.inst          1344                       # Number of bytes read from this memory
system.mem_ctrls.bytes_read::cpu12.data          5440                       # Number of bytes read from this memory
system.mem_ctrls.bytes_read::cpu13.inst           896                       # Number of bytes read from this memory
system.mem_ctrls.bytes_read::cpu13.data          7552                       # Number of bytes read from this memory
system.mem_ctrls.bytes_read::cpu14.inst           192                       # Number of bytes read from this memory
system.mem_ctrls.bytes_read::cpu14.data          5760                       # Number of bytes read from this memory
system.mem_ctrls.bytes_read::cpu15.inst           768                       # Number of bytes read from this memory
system.mem_ctrls.bytes_read::cpu15.data          4672                       # Number of bytes read from this memory
system.mem_ctrls.bytes_read::total             627904                       # Number of bytes read from this memory
system.mem_ctrls.bytes_inst_read::cpu00.inst       124480                       # Number of instructions bytes read from this memory
system.mem_ctrls.bytes_inst_read::cpu01.inst        11392                       # Number of instructions bytes read from this memory
system.mem_ctrls.bytes_inst_read::cpu02.inst         4416                       # Number of instructions bytes read from this memory
system.mem_ctrls.bytes_inst_read::cpu03.inst         4096                       # Number of instructions bytes read from this memory
system.mem_ctrls.bytes_inst_read::cpu04.inst         1600                       # Number of instructions bytes read from this memory
system.mem_ctrls.bytes_inst_read::cpu05.inst          448                       # Number of instructions bytes read from this memory
system.mem_ctrls.bytes_inst_read::cpu06.inst          256                       # Number of instructions bytes read from this memory
system.mem_ctrls.bytes_inst_read::cpu07.inst          320                       # Number of instructions bytes read from this memory
system.mem_ctrls.bytes_inst_read::cpu08.inst         1344                       # Number of instructions bytes read from this memory
system.mem_ctrls.bytes_inst_read::cpu09.inst          512                       # Number of instructions bytes read from this memory
system.mem_ctrls.bytes_inst_read::cpu10.inst         2048                       # Number of instructions bytes read from this memory
system.mem_ctrls.bytes_inst_read::cpu11.inst         1088                       # Number of instructions bytes read from this memory
system.mem_ctrls.bytes_inst_read::cpu12.inst         1344                       # Number of instructions bytes read from this memory
system.mem_ctrls.bytes_inst_read::cpu13.inst          896                       # Number of instructions bytes read from this memory
system.mem_ctrls.bytes_inst_read::cpu14.inst          192                       # Number of instructions bytes read from this memory
system.mem_ctrls.bytes_inst_read::cpu15.inst          768                       # Number of instructions bytes read from this memory
system.mem_ctrls.bytes_inst_read::total        155200                       # Number of instructions bytes read from this memory
system.mem_ctrls.bytes_written::writebacks        86336                       # Number of bytes written to this memory
system.mem_ctrls.bytes_written::total           86336                       # Number of bytes written to this memory
system.mem_ctrls.num_reads::cpu00.inst           1945                       # Number of read requests responded to by this memory
system.mem_ctrls.num_reads::cpu00.data           5918                       # Number of read requests responded to by this memory
system.mem_ctrls.num_reads::cpu01.inst            178                       # Number of read requests responded to by this memory
system.mem_ctrls.num_reads::cpu01.data            117                       # Number of read requests responded to by this memory
system.mem_ctrls.num_reads::cpu02.inst             69                       # Number of read requests responded to by this memory
system.mem_ctrls.num_reads::cpu02.data            111                       # Number of read requests responded to by this memory
system.mem_ctrls.num_reads::cpu03.inst             64                       # Number of read requests responded to by this memory
system.mem_ctrls.num_reads::cpu03.data             95                       # Number of read requests responded to by this memory
system.mem_ctrls.num_reads::cpu04.inst             25                       # Number of read requests responded to by this memory
system.mem_ctrls.num_reads::cpu04.data            121                       # Number of read requests responded to by this memory
system.mem_ctrls.num_reads::cpu05.inst              7                       # Number of read requests responded to by this memory
system.mem_ctrls.num_reads::cpu05.data             92                       # Number of read requests responded to by this memory
system.mem_ctrls.num_reads::cpu06.inst              4                       # Number of read requests responded to by this memory
system.mem_ctrls.num_reads::cpu06.data            108                       # Number of read requests responded to by this memory
system.mem_ctrls.num_reads::cpu07.inst              5                       # Number of read requests responded to by this memory
system.mem_ctrls.num_reads::cpu07.data            106                       # Number of read requests responded to by this memory
system.mem_ctrls.num_reads::cpu08.inst             21                       # Number of read requests responded to by this memory
system.mem_ctrls.num_reads::cpu08.data             87                       # Number of read requests responded to by this memory
system.mem_ctrls.num_reads::cpu09.inst              8                       # Number of read requests responded to by this memory
system.mem_ctrls.num_reads::cpu09.data             74                       # Number of read requests responded to by this memory
system.mem_ctrls.num_reads::cpu10.inst             32                       # Number of read requests responded to by this memory
system.mem_ctrls.num_reads::cpu10.data             90                       # Number of read requests responded to by this memory
system.mem_ctrls.num_reads::cpu11.inst             17                       # Number of read requests responded to by this memory
system.mem_ctrls.num_reads::cpu11.data            101                       # Number of read requests responded to by this memory
system.mem_ctrls.num_reads::cpu12.inst             21                       # Number of read requests responded to by this memory
system.mem_ctrls.num_reads::cpu12.data             85                       # Number of read requests responded to by this memory
system.mem_ctrls.num_reads::cpu13.inst             14                       # Number of read requests responded to by this memory
system.mem_ctrls.num_reads::cpu13.data            118                       # Number of read requests responded to by this memory
system.mem_ctrls.num_reads::cpu14.inst              3                       # Number of read requests responded to by this memory
system.mem_ctrls.num_reads::cpu14.data             90                       # Number of read requests responded to by this memory
system.mem_ctrls.num_reads::cpu15.inst             12                       # Number of read requests responded to by this memory
system.mem_ctrls.num_reads::cpu15.data             73                       # Number of read requests responded to by this memory
system.mem_ctrls.num_reads::total                9811                       # Number of read requests responded to by this memory
system.mem_ctrls.num_writes::writebacks          1349                       # Number of write requests responded to by this memory
system.mem_ctrls.num_writes::total               1349                       # Number of write requests responded to by this memory
system.mem_ctrls.bw_read::cpu00.inst         94963872                       # Total read bandwidth from this memory (bytes/s)
system.mem_ctrls.bw_read::cpu00.data        288944060                       # Total read bandwidth from this memory (bytes/s)
system.mem_ctrls.bw_read::cpu01.inst          8690781                       # Total read bandwidth from this memory (bytes/s)
system.mem_ctrls.bw_read::cpu01.data          5712480                       # Total read bandwidth from this memory (bytes/s)
system.mem_ctrls.bw_read::cpu02.inst          3368898                       # Total read bandwidth from this memory (bytes/s)
system.mem_ctrls.bw_read::cpu02.data          5419532                       # Total read bandwidth from this memory (bytes/s)
system.mem_ctrls.bw_read::cpu03.inst          3124775                       # Total read bandwidth from this memory (bytes/s)
system.mem_ctrls.bw_read::cpu03.data          4638338                       # Total read bandwidth from this memory (bytes/s)
system.mem_ctrls.bw_read::cpu04.inst          1220615                       # Total read bandwidth from this memory (bytes/s)
system.mem_ctrls.bw_read::cpu04.data          5907778                       # Total read bandwidth from this memory (bytes/s)
system.mem_ctrls.bw_read::cpu05.inst           341772                       # Total read bandwidth from this memory (bytes/s)
system.mem_ctrls.bw_read::cpu05.data          4491864                       # Total read bandwidth from this memory (bytes/s)
system.mem_ctrls.bw_read::cpu06.inst           195298                       # Total read bandwidth from this memory (bytes/s)
system.mem_ctrls.bw_read::cpu06.data          5273058                       # Total read bandwidth from this memory (bytes/s)
system.mem_ctrls.bw_read::cpu07.inst           244123                       # Total read bandwidth from this memory (bytes/s)
system.mem_ctrls.bw_read::cpu07.data          5175409                       # Total read bandwidth from this memory (bytes/s)
system.mem_ctrls.bw_read::cpu08.inst          1025317                       # Total read bandwidth from this memory (bytes/s)
system.mem_ctrls.bw_read::cpu08.data          4247741                       # Total read bandwidth from this memory (bytes/s)
system.mem_ctrls.bw_read::cpu09.inst           390597                       # Total read bandwidth from this memory (bytes/s)
system.mem_ctrls.bw_read::cpu09.data          3613021                       # Total read bandwidth from this memory (bytes/s)
system.mem_ctrls.bw_read::cpu10.inst          1562388                       # Total read bandwidth from this memory (bytes/s)
system.mem_ctrls.bw_read::cpu10.data          4394215                       # Total read bandwidth from this memory (bytes/s)
system.mem_ctrls.bw_read::cpu11.inst           830018                       # Total read bandwidth from this memory (bytes/s)
system.mem_ctrls.bw_read::cpu11.data          4931286                       # Total read bandwidth from this memory (bytes/s)
system.mem_ctrls.bw_read::cpu12.inst          1025317                       # Total read bandwidth from this memory (bytes/s)
system.mem_ctrls.bw_read::cpu12.data          4150092                       # Total read bandwidth from this memory (bytes/s)
system.mem_ctrls.bw_read::cpu13.inst           683545                       # Total read bandwidth from this memory (bytes/s)
system.mem_ctrls.bw_read::cpu13.data          5761304                       # Total read bandwidth from this memory (bytes/s)
system.mem_ctrls.bw_read::cpu14.inst           146474                       # Total read bandwidth from this memory (bytes/s)
system.mem_ctrls.bw_read::cpu14.data          4394215                       # Total read bandwidth from this memory (bytes/s)
system.mem_ctrls.bw_read::cpu15.inst           585895                       # Total read bandwidth from this memory (bytes/s)
system.mem_ctrls.bw_read::cpu15.data          3564197                       # Total read bandwidth from this memory (bytes/s)
system.mem_ctrls.bw_read::total             479018279                       # Total read bandwidth from this memory (bytes/s)
system.mem_ctrls.bw_inst_read::cpu00.inst     94963872                       # Instruction read bandwidth from this memory (bytes/s)
system.mem_ctrls.bw_inst_read::cpu01.inst      8690781                       # Instruction read bandwidth from this memory (bytes/s)
system.mem_ctrls.bw_inst_read::cpu02.inst      3368898                       # Instruction read bandwidth from this memory (bytes/s)
system.mem_ctrls.bw_inst_read::cpu03.inst      3124775                       # Instruction read bandwidth from this memory (bytes/s)
system.mem_ctrls.bw_inst_read::cpu04.inst      1220615                       # Instruction read bandwidth from this memory (bytes/s)
system.mem_ctrls.bw_inst_read::cpu05.inst       341772                       # Instruction read bandwidth from this memory (bytes/s)
system.mem_ctrls.bw_inst_read::cpu06.inst       195298                       # Instruction read bandwidth from this memory (bytes/s)
system.mem_ctrls.bw_inst_read::cpu07.inst       244123                       # Instruction read bandwidth from this memory (bytes/s)
system.mem_ctrls.bw_inst_read::cpu08.inst      1025317                       # Instruction read bandwidth from this memory (bytes/s)
system.mem_ctrls.bw_inst_read::cpu09.inst       390597                       # Instruction read bandwidth from this memory (bytes/s)
system.mem_ctrls.bw_inst_read::cpu10.inst      1562388                       # Instruction read bandwidth from this memory (bytes/s)
system.mem_ctrls.bw_inst_read::cpu11.inst       830018                       # Instruction read bandwidth from this memory (bytes/s)
system.mem_ctrls.bw_inst_read::cpu12.inst      1025317                       # Instruction read bandwidth from this memory (bytes/s)
system.mem_ctrls.bw_inst_read::cpu13.inst       683545                       # Instruction read bandwidth from this memory (bytes/s)
system.mem_ctrls.bw_inst_read::cpu14.inst       146474                       # Instruction read bandwidth from this memory (bytes/s)
system.mem_ctrls.bw_inst_read::cpu15.inst       585895                       # Instruction read bandwidth from this memory (bytes/s)
system.mem_ctrls.bw_inst_read::total        118399687                       # Instruction read bandwidth from this memory (bytes/s)
system.mem_ctrls.bw_write::writebacks        65864403                       # Write bandwidth from this memory (bytes/s)
system.mem_ctrls.bw_write::total             65864403                       # Write bandwidth from this memory (bytes/s)
system.mem_ctrls.bw_total::writebacks        65864403                       # Total bandwidth to/from this memory (bytes/s)
system.mem_ctrls.bw_total::cpu00.inst        94963872                       # Total bandwidth to/from this memory (bytes/s)
system.mem_ctrls.bw_total::cpu00.data       288944060                       # Total bandwidth to/from this memory (bytes/s)
system.mem_ctrls.bw_total::cpu01.inst         8690781                       # Total bandwidth to/from this memory (bytes/s)
system.mem_ctrls.bw_total::cpu01.data         5712480                       # Total bandwidth to/from this memory (bytes/s)
system.mem_ctrls.bw_total::cpu02.inst         3368898                       # Total bandwidth to/from this memory (bytes/s)
system.mem_ctrls.bw_total::cpu02.data         5419532                       # Total bandwidth to/from this memory (bytes/s)
system.mem_ctrls.bw_total::cpu03.inst         3124775                       # Total bandwidth to/from this memory (bytes/s)
system.mem_ctrls.bw_total::cpu03.data         4638338                       # Total bandwidth to/from this memory (bytes/s)
system.mem_ctrls.bw_total::cpu04.inst         1220615                       # Total bandwidth to/from this memory (bytes/s)
system.mem_ctrls.bw_total::cpu04.data         5907778                       # Total bandwidth to/from this memory (bytes/s)
system.mem_ctrls.bw_total::cpu05.inst          341772                       # Total bandwidth to/from this memory (bytes/s)
system.mem_ctrls.bw_total::cpu05.data         4491864                       # Total bandwidth to/from this memory (bytes/s)
system.mem_ctrls.bw_total::cpu06.inst          195298                       # Total bandwidth to/from this memory (bytes/s)
system.mem_ctrls.bw_total::cpu06.data         5273058                       # Total bandwidth to/from this memory (bytes/s)
system.mem_ctrls.bw_total::cpu07.inst          244123                       # Total bandwidth to/from this memory (bytes/s)
system.mem_ctrls.bw_total::cpu07.data         5175409                       # Total bandwidth to/from this memory (bytes/s)
system.mem_ctrls.bw_total::cpu08.inst         1025317                       # Total bandwidth to/from this memory (bytes/s)
system.mem_ctrls.bw_total::cpu08.data         4247741                       # Total bandwidth to/from this memory (bytes/s)
system.mem_ctrls.bw_total::cpu09.inst          390597                       # Total bandwidth to/from this memory (bytes/s)
system.mem_ctrls.bw_total::cpu09.data         3613021                       # Total bandwidth to/from this memory (bytes/s)
system.mem_ctrls.bw_total::cpu10.inst         1562388                       # Total bandwidth to/from this memory (bytes/s)
system.mem_ctrls.bw_total::cpu10.data         4394215                       # Total bandwidth to/from this memory (bytes/s)
system.mem_ctrls.bw_total::cpu11.inst          830018                       # Total bandwidth to/from this memory (bytes/s)
system.mem_ctrls.bw_total::cpu11.data         4931286                       # Total bandwidth to/from this memory (bytes/s)
system.mem_ctrls.bw_total::cpu12.inst         1025317                       # Total bandwidth to/from this memory (bytes/s)
system.mem_ctrls.bw_total::cpu12.data         4150092                       # Total bandwidth to/from this memory (bytes/s)
system.mem_ctrls.bw_total::cpu13.inst          683545                       # Total bandwidth to/from this memory (bytes/s)
system.mem_ctrls.bw_total::cpu13.data         5761304                       # Total bandwidth to/from this memory (bytes/s)
system.mem_ctrls.bw_total::cpu14.inst          146474                       # Total bandwidth to/from this memory (bytes/s)
system.mem_ctrls.bw_total::cpu14.data         4394215                       # Total bandwidth to/from this memory (bytes/s)
system.mem_ctrls.bw_total::cpu15.inst          585895                       # Total bandwidth to/from this memory (bytes/s)
system.mem_ctrls.bw_total::cpu15.data         3564197                       # Total bandwidth to/from this memory (bytes/s)
system.mem_ctrls.bw_total::total            544882682                       # Total bandwidth to/from this memory (bytes/s)
system.cpu00.branchPred.lookups                133682                       # Number of BP lookups
system.cpu00.branchPred.condPredicted           74686                       # Number of conditional branches predicted
system.cpu00.branchPred.condIncorrect            5775                       # Number of conditional branches incorrect
system.cpu00.branchPred.BTBLookups              87477                       # Number of BTB lookups
system.cpu00.branchPred.BTBHits                 67050                       # Number of BTB hits
system.cpu00.branchPred.BTBCorrect                  0                       # Number of correct BTB predictions (this stat may not work properly.
system.cpu00.branchPred.BTBHitPct           76.648719                       # BTB Hit Percentage
system.cpu00.branchPred.usedRAS                 26635                       # Number of times the RAS was used to get a target.
system.cpu00.branchPred.RASInCorrect               94                       # Number of incorrect RAS predictions.
system.cpu00.branchPred.indirectLookups          3674                       # Number of indirect predictor lookups.
system.cpu00.branchPred.indirectHits             2897                       # Number of indirect target hits.
system.cpu00.branchPred.indirectMisses            777                       # Number of indirect misses.
system.cpu00.branchPredindirectMispredicted          251                       # Number of mispredicted indirect branches.
system.cpu_voltage_domain.voltage                   1                       # Voltage in Volts
system.cpu_clk_domain.clock                      1161                       # Clock period in ticks
system.cpu00.dtb.fetch_hits                         0                       # ITB hits
system.cpu00.dtb.fetch_misses                       0                       # ITB misses
system.cpu00.dtb.fetch_acv                          0                       # ITB acv
system.cpu00.dtb.fetch_accesses                     0                       # ITB accesses
system.cpu00.dtb.read_hits                     183465                       # DTB read hits
system.cpu00.dtb.read_misses                      628                       # DTB read misses
system.cpu00.dtb.read_acv                           0                       # DTB read access violations
system.cpu00.dtb.read_accesses                 184093                       # DTB read accesses
system.cpu00.dtb.write_hits                    128026                       # DTB write hits
system.cpu00.dtb.write_misses                    1133                       # DTB write misses
system.cpu00.dtb.write_acv                          0                       # DTB write access violations
system.cpu00.dtb.write_accesses                129159                       # DTB write accesses
system.cpu00.dtb.data_hits                     311491                       # DTB hits
system.cpu00.dtb.data_misses                     1761                       # DTB misses
system.cpu00.dtb.data_acv                           0                       # DTB access violations
system.cpu00.dtb.data_accesses                 313252                       # DTB accesses
system.cpu00.itb.fetch_hits                    150480                       # ITB hits
system.cpu00.itb.fetch_misses                     150                       # ITB misses
system.cpu00.itb.fetch_acv                          0                       # ITB acv
system.cpu00.itb.fetch_accesses                150630                       # ITB accesses
system.cpu00.itb.read_hits                          0                       # DTB read hits
system.cpu00.itb.read_misses                        0                       # DTB read misses
system.cpu00.itb.read_acv                           0                       # DTB read access violations
system.cpu00.itb.read_accesses                      0                       # DTB read accesses
system.cpu00.itb.write_hits                         0                       # DTB write hits
system.cpu00.itb.write_misses                       0                       # DTB write misses
system.cpu00.itb.write_acv                          0                       # DTB write access violations
system.cpu00.itb.write_accesses                     0                       # DTB write accesses
system.cpu00.itb.data_hits                          0                       # DTB hits
system.cpu00.itb.data_misses                        0                       # DTB misses
system.cpu00.itb.data_acv                           0                       # DTB access violations
system.cpu00.itb.data_accesses                      0                       # DTB accesses
system.cpu00.workload.num_syscalls               2137                       # Number of system calls
system.cpu00.numCycles                        1052870                       # number of cpu cycles simulated
system.cpu00.numWorkItemsStarted                    0                       # number of work items this cpu started
system.cpu00.numWorkItemsCompleted                  0                       # number of work items this cpu completed
system.cpu00.fetch.icacheStallCycles            88913                       # Number of cycles fetch is stalled on an Icache miss
system.cpu00.fetch.Insts                      1196541                       # Number of instructions fetch has processed
system.cpu00.fetch.Branches                    133682                       # Number of branches that fetch encountered
system.cpu00.fetch.predictedBranches            96582                       # Number of branches that fetch has predicted taken
system.cpu00.fetch.Cycles                      738827                       # Number of cycles fetch has run and was not squashing or blocked
system.cpu00.fetch.SquashCycles                 12926                       # Number of cycles fetch has spent squashing
system.cpu00.fetch.MiscStallCycles                370                       # Number of cycles fetch has spent waiting on interrupts, or bad addresses, or out of MSHRs
system.cpu00.fetch.PendingTrapStallCycles         6395                       # Number of stall cycles due to pending traps
system.cpu00.fetch.IcacheWaitRetryStallCycles          638                       # Number of stall cycles due to full MSHR
system.cpu00.fetch.CacheLines                  150480                       # Number of cache lines fetched
system.cpu00.fetch.IcacheSquashes                2728                       # Number of outstanding Icache misses that were squashed
system.cpu00.fetch.rateDist::samples           841606                       # Number of instructions fetched each cycle (Total)
system.cpu00.fetch.rateDist::mean            1.421735                       # Number of instructions fetched each cycle (Total)
system.cpu00.fetch.rateDist::stdev           2.694420                       # Number of instructions fetched each cycle (Total)
system.cpu00.fetch.rateDist::underflows             0      0.00%      0.00% # Number of instructions fetched each cycle (Total)
system.cpu00.fetch.rateDist::0                 621317     73.83%     73.83% # Number of instructions fetched each cycle (Total)
system.cpu00.fetch.rateDist::1                  16633      1.98%     75.80% # Number of instructions fetched each cycle (Total)
system.cpu00.fetch.rateDist::2                  18702      2.22%     78.02% # Number of instructions fetched each cycle (Total)
system.cpu00.fetch.rateDist::3                  17424      2.07%     80.09% # Number of instructions fetched each cycle (Total)
system.cpu00.fetch.rateDist::4                  38025      4.52%     84.61% # Number of instructions fetched each cycle (Total)
system.cpu00.fetch.rateDist::5                  16166      1.92%     86.53% # Number of instructions fetched each cycle (Total)
system.cpu00.fetch.rateDist::6                  18889      2.24%     88.78% # Number of instructions fetched each cycle (Total)
system.cpu00.fetch.rateDist::7                  11632      1.38%     90.16% # Number of instructions fetched each cycle (Total)
system.cpu00.fetch.rateDist::8                  82818      9.84%    100.00% # Number of instructions fetched each cycle (Total)
system.cpu00.fetch.rateDist::overflows              0      0.00%    100.00% # Number of instructions fetched each cycle (Total)
system.cpu00.fetch.rateDist::min_value              0                       # Number of instructions fetched each cycle (Total)
system.cpu00.fetch.rateDist::max_value              8                       # Number of instructions fetched each cycle (Total)
system.cpu00.fetch.rateDist::total             841606                       # Number of instructions fetched each cycle (Total)
system.cpu00.fetch.branchRate                0.126969                       # Number of branch fetches per cycle
system.cpu00.fetch.rate                      1.136457                       # Number of inst fetches per cycle
system.cpu00.decode.IdleCycles                  95124                       # Number of cycles decode is idle
system.cpu00.decode.BlockedCycles              578379                       # Number of cycles decode is blocked
system.cpu00.decode.RunCycles                  128507                       # Number of cycles decode is running
system.cpu00.decode.UnblockCycles               34861                       # Number of cycles decode is unblocking
system.cpu00.decode.SquashCycles                 4735                       # Number of cycles decode is squashing
system.cpu00.decode.BranchResolved              26494                       # Number of times decode resolved a branch
system.cpu00.decode.BranchMispred                1768                       # Number of times decode detected a branch misprediction
system.cpu00.decode.DecodedInsts              1128188                       # Number of instructions handled by decode
system.cpu00.decode.SquashedInsts                7292                       # Number of squashed instructions handled by decode
system.cpu00.rename.SquashCycles                 4735                       # Number of cycles rename is squashing
system.cpu00.rename.IdleCycles                 111362                       # Number of cycles rename is idle
system.cpu00.rename.BlockCycles                 92925                       # Number of cycles rename is blocking
system.cpu00.rename.serializeStallCycles       224210                       # count of cycles rename stalled for serializing inst
system.cpu00.rename.RunCycles                  147129                       # Number of cycles rename is running
system.cpu00.rename.UnblockCycles              261245                       # Number of cycles rename is unblocking
system.cpu00.rename.RenamedInsts              1108627                       # Number of instructions processed by rename
system.cpu00.rename.ROBFullEvents                2850                       # Number of times rename has blocked due to ROB full
system.cpu00.rename.IQFullEvents                25790                       # Number of times rename has blocked due to IQ full
system.cpu00.rename.LQFullEvents                 2435                       # Number of times rename has blocked due to LQ full
system.cpu00.rename.SQFullEvents               223037                       # Number of times rename has blocked due to SQ full
system.cpu00.rename.RenamedOperands            760199                       # Number of destination operands rename has renamed
system.cpu00.rename.RenameLookups             1372590                       # Number of register rename lookups that rename has made
system.cpu00.rename.int_rename_lookups        1214604                       # Number of integer rename lookups
system.cpu00.rename.fp_rename_lookups          155699                       # Number of floating rename lookups
system.cpu00.rename.CommittedMaps              669028                       # Number of HB maps that are committed
system.cpu00.rename.UndoneMaps                  91171                       # Number of HB maps that are undone due to squashing
system.cpu00.rename.serializingInsts             4085                       # count of serializing insts renamed
system.cpu00.rename.tempSerializingInsts         1712                       # count of temporary serializing insts renamed
system.cpu00.rename.skidInsts                  155395                       # count of insts added to the skid buffer
system.cpu00.memDep0.insertedLoads             180368                       # Number of loads inserted to the mem dependence unit.
system.cpu00.memDep0.insertedStores            135570                       # Number of stores inserted to the mem dependence unit.
system.cpu00.memDep0.conflictingLoads           32243                       # Number of conflicting loads.
system.cpu00.memDep0.conflictingStores          12614                       # Number of conflicting stores.
system.cpu00.iq.iqInstsAdded                   971555                       # Number of instructions added to the IQ (excludes non-spec)
system.cpu00.iq.iqNonSpecInstsAdded              2801                       # Number of non-speculative instructions added to the IQ
system.cpu00.iq.iqInstsIssued                  956052                       # Number of instructions issued
system.cpu00.iq.iqSquashedInstsIssued            1925                       # Number of squashed instructions issued
system.cpu00.iq.iqSquashedInstsExamined        104191                       # Number of squashed instructions iterated over during squash; mainly for profiling
system.cpu00.iq.iqSquashedOperandsExamined        52595                       # Number of squashed operands that are examined and possibly removed from graph
system.cpu00.iq.iqSquashedNonSpecRemoved          419                       # Number of squashed non-spec instructions that were removed
system.cpu00.iq.issued_per_cycle::samples       841606                       # Number of insts issued each cycle
system.cpu00.iq.issued_per_cycle::mean       1.135985                       # Number of insts issued each cycle
system.cpu00.iq.issued_per_cycle::stdev      1.901464                       # Number of insts issued each cycle
system.cpu00.iq.issued_per_cycle::underflows            0      0.00%      0.00% # Number of insts issued each cycle
system.cpu00.iq.issued_per_cycle::0            537942     63.92%     63.92% # Number of insts issued each cycle
system.cpu00.iq.issued_per_cycle::1             76372      9.07%     72.99% # Number of insts issued each cycle
system.cpu00.iq.issued_per_cycle::2             63405      7.53%     80.53% # Number of insts issued each cycle
system.cpu00.iq.issued_per_cycle::3             46696      5.55%     86.08% # Number of insts issued each cycle
system.cpu00.iq.issued_per_cycle::4             43539      5.17%     91.25% # Number of insts issued each cycle
system.cpu00.iq.issued_per_cycle::5             29275      3.48%     94.73% # Number of insts issued each cycle
system.cpu00.iq.issued_per_cycle::6             25766      3.06%     97.79% # Number of insts issued each cycle
system.cpu00.iq.issued_per_cycle::7             11233      1.33%     99.12% # Number of insts issued each cycle
system.cpu00.iq.issued_per_cycle::8              7378      0.88%    100.00% # Number of insts issued each cycle
system.cpu00.iq.issued_per_cycle::overflows            0      0.00%    100.00% # Number of insts issued each cycle
system.cpu00.iq.issued_per_cycle::min_value            0                       # Number of insts issued each cycle
system.cpu00.iq.issued_per_cycle::max_value            8                       # Number of insts issued each cycle
system.cpu00.iq.issued_per_cycle::total        841606                       # Number of insts issued each cycle
system.cpu00.iq.fu_full::No_OpClass                 0      0.00%      0.00% # attempts to use FU when none available
system.cpu00.iq.fu_full::IntAlu                  4602     14.90%     14.90% # attempts to use FU when none available
system.cpu00.iq.fu_full::IntMult                 4097     13.27%     28.17% # attempts to use FU when none available
system.cpu00.iq.fu_full::IntDiv                     0      0.00%     28.17% # attempts to use FU when none available
system.cpu00.iq.fu_full::FloatAdd                  79      0.26%     28.43% # attempts to use FU when none available
system.cpu00.iq.fu_full::FloatCmp                   0      0.00%     28.43% # attempts to use FU when none available
system.cpu00.iq.fu_full::FloatCvt                   0      0.00%     28.43% # attempts to use FU when none available
system.cpu00.iq.fu_full::FloatMult               5961     19.30%     47.73% # attempts to use FU when none available
system.cpu00.iq.fu_full::FloatDiv                   0      0.00%     47.73% # attempts to use FU when none available
system.cpu00.iq.fu_full::FloatSqrt                  0      0.00%     47.73% # attempts to use FU when none available
system.cpu00.iq.fu_full::SimdAdd                    0      0.00%     47.73% # attempts to use FU when none available
system.cpu00.iq.fu_full::SimdAddAcc                 0      0.00%     47.73% # attempts to use FU when none available
system.cpu00.iq.fu_full::SimdAlu                    0      0.00%     47.73% # attempts to use FU when none available
system.cpu00.iq.fu_full::SimdCmp                    0      0.00%     47.73% # attempts to use FU when none available
system.cpu00.iq.fu_full::SimdCvt                    0      0.00%     47.73% # attempts to use FU when none available
system.cpu00.iq.fu_full::SimdMisc                   0      0.00%     47.73% # attempts to use FU when none available
system.cpu00.iq.fu_full::SimdMult                   0      0.00%     47.73% # attempts to use FU when none available
system.cpu00.iq.fu_full::SimdMultAcc                0      0.00%     47.73% # attempts to use FU when none available
system.cpu00.iq.fu_full::SimdShift                  0      0.00%     47.73% # attempts to use FU when none available
system.cpu00.iq.fu_full::SimdShiftAcc               0      0.00%     47.73% # attempts to use FU when none available
system.cpu00.iq.fu_full::SimdSqrt                   0      0.00%     47.73% # attempts to use FU when none available
system.cpu00.iq.fu_full::SimdFloatAdd               0      0.00%     47.73% # attempts to use FU when none available
system.cpu00.iq.fu_full::SimdFloatAlu               0      0.00%     47.73% # attempts to use FU when none available
system.cpu00.iq.fu_full::SimdFloatCmp               0      0.00%     47.73% # attempts to use FU when none available
system.cpu00.iq.fu_full::SimdFloatCvt               0      0.00%     47.73% # attempts to use FU when none available
system.cpu00.iq.fu_full::SimdFloatDiv               0      0.00%     47.73% # attempts to use FU when none available
system.cpu00.iq.fu_full::SimdFloatMisc              0      0.00%     47.73% # attempts to use FU when none available
system.cpu00.iq.fu_full::SimdFloatMult              0      0.00%     47.73% # attempts to use FU when none available
system.cpu00.iq.fu_full::SimdFloatMultAcc            0      0.00%     47.73% # attempts to use FU when none available
system.cpu00.iq.fu_full::SimdFloatSqrt              0      0.00%     47.73% # attempts to use FU when none available
system.cpu00.iq.fu_full::MemRead                 9928     32.15%     79.88% # attempts to use FU when none available
system.cpu00.iq.fu_full::MemWrite                6213     20.12%    100.00% # attempts to use FU when none available
system.cpu00.iq.fu_full::IprAccess                  0      0.00%    100.00% # attempts to use FU when none available
system.cpu00.iq.fu_full::InstPrefetch               0      0.00%    100.00% # attempts to use FU when none available
system.cpu00.iq.FU_type_0::No_OpClass               0      0.00%      0.00% # Type of FU issued
system.cpu00.iq.FU_type_0::IntAlu              552408     57.78%     57.78% # Type of FU issued
system.cpu00.iq.FU_type_0::IntMult              12789      1.34%     59.12% # Type of FU issued
system.cpu00.iq.FU_type_0::IntDiv                   0      0.00%     59.12% # Type of FU issued
system.cpu00.iq.FU_type_0::FloatAdd             35725      3.74%     62.85% # Type of FU issued
system.cpu00.iq.FU_type_0::FloatCmp                 8      0.00%     62.86% # Type of FU issued
system.cpu00.iq.FU_type_0::FloatCvt                 0      0.00%     62.86% # Type of FU issued
system.cpu00.iq.FU_type_0::FloatMult            37102      3.88%     66.74% # Type of FU issued
system.cpu00.iq.FU_type_0::FloatDiv                16      0.00%     66.74% # Type of FU issued
system.cpu00.iq.FU_type_0::FloatSqrt                0      0.00%     66.74% # Type of FU issued
system.cpu00.iq.FU_type_0::SimdAdd                  0      0.00%     66.74% # Type of FU issued
system.cpu00.iq.FU_type_0::SimdAddAcc               0      0.00%     66.74% # Type of FU issued
system.cpu00.iq.FU_type_0::SimdAlu                  0      0.00%     66.74% # Type of FU issued
system.cpu00.iq.FU_type_0::SimdCmp                  0      0.00%     66.74% # Type of FU issued
system.cpu00.iq.FU_type_0::SimdCvt                  0      0.00%     66.74% # Type of FU issued
system.cpu00.iq.FU_type_0::SimdMisc                 0      0.00%     66.74% # Type of FU issued
system.cpu00.iq.FU_type_0::SimdMult                 0      0.00%     66.74% # Type of FU issued
system.cpu00.iq.FU_type_0::SimdMultAcc              0      0.00%     66.74% # Type of FU issued
system.cpu00.iq.FU_type_0::SimdShift                0      0.00%     66.74% # Type of FU issued
system.cpu00.iq.FU_type_0::SimdShiftAcc             0      0.00%     66.74% # Type of FU issued
system.cpu00.iq.FU_type_0::SimdSqrt                 0      0.00%     66.74% # Type of FU issued
system.cpu00.iq.FU_type_0::SimdFloatAdd             0      0.00%     66.74% # Type of FU issued
system.cpu00.iq.FU_type_0::SimdFloatAlu             0      0.00%     66.74% # Type of FU issued
system.cpu00.iq.FU_type_0::SimdFloatCmp             0      0.00%     66.74% # Type of FU issued
system.cpu00.iq.FU_type_0::SimdFloatCvt             0      0.00%     66.74% # Type of FU issued
system.cpu00.iq.FU_type_0::SimdFloatDiv             0      0.00%     66.74% # Type of FU issued
system.cpu00.iq.FU_type_0::SimdFloatMisc            0      0.00%     66.74% # Type of FU issued
system.cpu00.iq.FU_type_0::SimdFloatMult            0      0.00%     66.74% # Type of FU issued
system.cpu00.iq.FU_type_0::SimdFloatMultAcc            0      0.00%     66.74% # Type of FU issued
system.cpu00.iq.FU_type_0::SimdFloatSqrt            0      0.00%     66.74% # Type of FU issued
system.cpu00.iq.FU_type_0::MemRead             187358     19.60%     86.33% # Type of FU issued
system.cpu00.iq.FU_type_0::MemWrite            130646     13.67%    100.00% # Type of FU issued
system.cpu00.iq.FU_type_0::IprAccess                0      0.00%    100.00% # Type of FU issued
system.cpu00.iq.FU_type_0::InstPrefetch             0      0.00%    100.00% # Type of FU issued
system.cpu00.iq.FU_type_0::total               956052                       # Type of FU issued
system.cpu00.iq.rate                         0.908044                       # Inst issue rate
system.cpu00.iq.fu_busy_cnt                     30880                       # FU busy when requested
system.cpu00.iq.fu_busy_rate                 0.032299                       # FU busy rate (busy events/executed inst)
system.cpu00.iq.int_inst_queue_reads          2543155                       # Number of integer instruction queue reads
system.cpu00.iq.int_inst_queue_writes          955755                       # Number of integer instruction queue writes
system.cpu00.iq.int_inst_queue_wakeup_accesses       815359                       # Number of integer instruction queue wakeup accesses
system.cpu00.iq.fp_inst_queue_reads            243360                       # Number of floating instruction queue reads
system.cpu00.iq.fp_inst_queue_writes           123216                       # Number of floating instruction queue writes
system.cpu00.iq.fp_inst_queue_wakeup_accesses       116964                       # Number of floating instruction queue wakeup accesses
system.cpu00.iq.int_alu_accesses               861902                       # Number of integer alu accesses
system.cpu00.iq.fp_alu_accesses                125030                       # Number of floating point alu accesses
system.cpu00.iew.lsq.thread0.forwLoads          21405                       # Number of loads that had data forwarded from stores
system.cpu00.iew.lsq.thread0.invAddrLoads            0                       # Number of loads ignored due to an invalid address
system.cpu00.iew.lsq.thread0.squashedLoads        19340                       # Number of loads squashed
system.cpu00.iew.lsq.thread0.ignoredResponses          111                       # Number of memory responses ignored because the instruction is squashed
system.cpu00.iew.lsq.thread0.memOrderViolation          435                       # Number of memory ordering violations
system.cpu00.iew.lsq.thread0.squashedStores        16035                       # Number of stores squashed
system.cpu00.iew.lsq.thread0.invAddrSwpfs            0                       # Number of software prefetches ignored due to an invalid address
system.cpu00.iew.lsq.thread0.blockedLoads            0                       # Number of blocked loads due to partial load-store forwarding
system.cpu00.iew.lsq.thread0.rescheduledLoads          215                       # Number of loads that were rescheduled
system.cpu00.iew.lsq.thread0.cacheBlocked        12379                       # Number of times an access to memory failed due to the cache being blocked
system.cpu00.iew.iewIdleCycles                      0                       # Number of cycles IEW is idle
system.cpu00.iew.iewSquashCycles                 4735                       # Number of cycles IEW is squashing
system.cpu00.iew.iewBlockCycles                 23319                       # Number of cycles IEW is blocking
system.cpu00.iew.iewUnblockCycles               60128                       # Number of cycles IEW is unblocking
system.cpu00.iew.iewDispatchedInsts           1082181                       # Number of instructions dispatched to IQ
system.cpu00.iew.iewDispSquashedInsts            1486                       # Number of squashed instructions skipped by dispatch
system.cpu00.iew.iewDispLoadInsts              180368                       # Number of dispatched load instructions
system.cpu00.iew.iewDispStoreInsts             135570                       # Number of dispatched store instructions
system.cpu00.iew.iewDispNonSpecInsts             1629                       # Number of dispatched non-speculative instructions
system.cpu00.iew.iewIQFullEvents                  229                       # Number of times the IQ has become full, causing a stall
system.cpu00.iew.iewLSQFullEvents               59820                       # Number of times the LSQ has become full, causing a stall
system.cpu00.iew.memOrderViolationEvents          435                       # Number of memory order violations
system.cpu00.iew.predictedTakenIncorrect         1669                       # Number of branches that were predicted taken incorrectly
system.cpu00.iew.predictedNotTakenIncorrect         3154                       # Number of branches that were predicted not taken incorrectly
system.cpu00.iew.branchMispredicts               4823                       # Number of branch mispredicts detected at execute
system.cpu00.iew.iewExecutedInsts              948473                       # Number of executed instructions
system.cpu00.iew.iewExecLoadInsts              184112                       # Number of load instructions executed
system.cpu00.iew.iewExecSquashedInsts            7579                       # Number of squashed instructions skipped in execute
system.cpu00.iew.exec_swp                           0                       # number of swp insts executed
system.cpu00.iew.exec_nop                      107825                       # number of nop insts executed
system.cpu00.iew.exec_refs                     313278                       # number of memory reference insts executed
system.cpu00.iew.exec_branches                 110665                       # Number of branches executed
system.cpu00.iew.exec_stores                   129166                       # Number of stores executed
system.cpu00.iew.exec_rate                   0.900845                       # Inst execution rate
system.cpu00.iew.wb_sent                       935689                       # cumulative count of insts sent to commit
system.cpu00.iew.wb_count                      932323                       # cumulative count of insts written-back
system.cpu00.iew.wb_producers                  546143                       # num instructions producing a value
system.cpu00.iew.wb_consumers                  778802                       # num instructions consuming a value
system.cpu00.iew.wb_rate                     0.885506                       # insts written-back per cycle
system.cpu00.iew.wb_fanout                   0.701260                       # average fanout of values written-back
system.cpu00.commit.commitSquashedInsts        108941                       # The number of squashed insts skipped by commit
system.cpu00.commit.commitNonSpecStalls          2382                       # The number of times commit has been forced to stall to communicate backwards
system.cpu00.commit.branchMispredicts            4047                       # The number of times a branch was mispredicted
system.cpu00.commit.committed_per_cycle::samples       824450                       # Number of insts commited each cycle
system.cpu00.commit.committed_per_cycle::mean     1.175140                       # Number of insts commited each cycle
system.cpu00.commit.committed_per_cycle::stdev     2.284063                       # Number of insts commited each cycle
system.cpu00.commit.committed_per_cycle::underflows            0      0.00%      0.00% # Number of insts commited each cycle
system.cpu00.commit.committed_per_cycle::0       575858     69.85%     69.85% # Number of insts commited each cycle
system.cpu00.commit.committed_per_cycle::1        52196      6.33%     76.18% # Number of insts commited each cycle
system.cpu00.commit.committed_per_cycle::2        51301      6.22%     82.40% # Number of insts commited each cycle
system.cpu00.commit.committed_per_cycle::3        29942      3.63%     86.03% # Number of insts commited each cycle
system.cpu00.commit.committed_per_cycle::4        34837      4.23%     90.26% # Number of insts commited each cycle
system.cpu00.commit.committed_per_cycle::5         9037      1.10%     91.35% # Number of insts commited each cycle
system.cpu00.commit.committed_per_cycle::6        12878      1.56%     92.92% # Number of insts commited each cycle
system.cpu00.commit.committed_per_cycle::7         4789      0.58%     93.50% # Number of insts commited each cycle
system.cpu00.commit.committed_per_cycle::8        53612      6.50%    100.00% # Number of insts commited each cycle
system.cpu00.commit.committed_per_cycle::overflows            0      0.00%    100.00% # Number of insts commited each cycle
system.cpu00.commit.committed_per_cycle::min_value            0                       # Number of insts commited each cycle
system.cpu00.commit.committed_per_cycle::max_value            8                       # Number of insts commited each cycle
system.cpu00.commit.committed_per_cycle::total       824450                       # Number of insts commited each cycle
system.cpu00.commit.committedInsts             968844                       # Number of instructions committed
system.cpu00.commit.committedOps               968844                       # Number of ops (including micro ops) committed
system.cpu00.commit.swp_count                       0                       # Number of s/w prefetches committed
system.cpu00.commit.refs                       280563                       # Number of memory references committed
system.cpu00.commit.loads                      161028                       # Number of loads committed
system.cpu00.commit.membars                      1041                       # Number of memory barriers committed
system.cpu00.commit.branches                   100186                       # Number of branches committed
system.cpu00.commit.fp_insts                   116058                       # Number of committed floating point instructions.
system.cpu00.commit.int_insts                  792287                       # Number of committed integer instructions.
system.cpu00.commit.function_calls              22228                       # Number of function calls committed.
system.cpu00.commit.op_class_0::No_OpClass        98680     10.19%     10.19% # Class of committed instruction
system.cpu00.commit.op_class_0::IntAlu         503433     51.96%     62.15% # Class of committed instruction
system.cpu00.commit.op_class_0::IntMult         12689      1.31%     63.46% # Class of committed instruction
system.cpu00.commit.op_class_0::IntDiv              0      0.00%     63.46% # Class of committed instruction
system.cpu00.commit.op_class_0::FloatAdd        35480      3.66%     67.12% # Class of committed instruction
system.cpu00.commit.op_class_0::FloatCmp            8      0.00%     67.12% # Class of committed instruction
system.cpu00.commit.op_class_0::FloatCvt            0      0.00%     67.12% # Class of committed instruction
system.cpu00.commit.op_class_0::FloatMult        36935      3.81%     70.93% # Class of committed instruction
system.cpu00.commit.op_class_0::FloatDiv           14      0.00%     70.93% # Class of committed instruction
system.cpu00.commit.op_class_0::FloatSqrt            0      0.00%     70.93% # Class of committed instruction
system.cpu00.commit.op_class_0::SimdAdd             0      0.00%     70.93% # Class of committed instruction
system.cpu00.commit.op_class_0::SimdAddAcc            0      0.00%     70.93% # Class of committed instruction
system.cpu00.commit.op_class_0::SimdAlu             0      0.00%     70.93% # Class of committed instruction
system.cpu00.commit.op_class_0::SimdCmp             0      0.00%     70.93% # Class of committed instruction
system.cpu00.commit.op_class_0::SimdCvt             0      0.00%     70.93% # Class of committed instruction
system.cpu00.commit.op_class_0::SimdMisc            0      0.00%     70.93% # Class of committed instruction
system.cpu00.commit.op_class_0::SimdMult            0      0.00%     70.93% # Class of committed instruction
system.cpu00.commit.op_class_0::SimdMultAcc            0      0.00%     70.93% # Class of committed instruction
system.cpu00.commit.op_class_0::SimdShift            0      0.00%     70.93% # Class of committed instruction
system.cpu00.commit.op_class_0::SimdShiftAcc            0      0.00%     70.93% # Class of committed instruction
system.cpu00.commit.op_class_0::SimdSqrt            0      0.00%     70.93% # Class of committed instruction
system.cpu00.commit.op_class_0::SimdFloatAdd            0      0.00%     70.93% # Class of committed instruction
system.cpu00.commit.op_class_0::SimdFloatAlu            0      0.00%     70.93% # Class of committed instruction
system.cpu00.commit.op_class_0::SimdFloatCmp            0      0.00%     70.93% # Class of committed instruction
system.cpu00.commit.op_class_0::SimdFloatCvt            0      0.00%     70.93% # Class of committed instruction
system.cpu00.commit.op_class_0::SimdFloatDiv            0      0.00%     70.93% # Class of committed instruction
system.cpu00.commit.op_class_0::SimdFloatMisc            0      0.00%     70.93% # Class of committed instruction
system.cpu00.commit.op_class_0::SimdFloatMult            0      0.00%     70.93% # Class of committed instruction
system.cpu00.commit.op_class_0::SimdFloatMultAcc            0      0.00%     70.93% # Class of committed instruction
system.cpu00.commit.op_class_0::SimdFloatSqrt            0      0.00%     70.93% # Class of committed instruction
system.cpu00.commit.op_class_0::MemRead        162069     16.73%     87.66% # Class of committed instruction
system.cpu00.commit.op_class_0::MemWrite       119536     12.34%    100.00% # Class of committed instruction
system.cpu00.commit.op_class_0::IprAccess            0      0.00%    100.00% # Class of committed instruction
system.cpu00.commit.op_class_0::InstPrefetch            0      0.00%    100.00% # Class of committed instruction
system.cpu00.commit.op_class_0::total          968844                       # Class of committed instruction
system.cpu00.commit.bw_lim_events               53612                       # number cycles where commit BW limit reached
system.cpu00.rob.rob_reads                    1844632                       # The number of ROB reads
system.cpu00.rob.rob_writes                   2172836                       # The number of ROB writes
system.cpu00.timesIdled                          1458                       # Number of times that the entire CPU went into an idle state and unscheduled itself
system.cpu00.idleCycles                        211264                       # Total number of cycles that the CPU has spent unscheduled due to idling
system.cpu00.quiesceCycles                      76170                       # Total number of cycles that CPU has spent quiesced or waiting for an interrupt
system.cpu00.committedInsts                    870164                       # Number of Instructions Simulated
system.cpu00.committedOps                      870164                       # Number of Ops (including micro ops) Simulated
system.cpu00.cpi                             1.209967                       # CPI: Cycles Per Instruction
system.cpu00.cpi_total                       1.209967                       # CPI: Total CPI of All Threads
system.cpu00.ipc                             0.826469                       # IPC: Instructions Per Cycle
system.cpu00.ipc_total                       0.826469                       # IPC: Total IPC of All Threads
system.cpu00.int_regfile_reads                1145362                       # number of integer regfile reads
system.cpu00.int_regfile_writes                613665                       # number of integer regfile writes
system.cpu00.fp_regfile_reads                  151810                       # number of floating regfile reads
system.cpu00.fp_regfile_writes                 102896                       # number of floating regfile writes
system.cpu00.misc_regfile_reads                  4809                       # number of misc regfile reads
system.cpu00.misc_regfile_writes                 2258                       # number of misc regfile writes
system.cpu00.dcache.tags.replacements           17296                       # number of replacements
system.cpu00.dcache.tags.tagsinuse          62.960783                       # Cycle average of tags in use
system.cpu00.dcache.tags.total_refs            219349                       # Total number of references to valid blocks.
system.cpu00.dcache.tags.sampled_refs           17360                       # Sample count of references to valid blocks.
system.cpu00.dcache.tags.avg_refs           12.635311                       # Average number of references to valid blocks.
system.cpu00.dcache.tags.warmup_cycle        62818227                       # Cycle when the warmup percentage was hit.
system.cpu00.dcache.tags.occ_blocks::cpu00.data    62.960783                       # Average occupied blocks per requestor
system.cpu00.dcache.tags.occ_percent::cpu00.data     0.983762                       # Average percentage of cache occupancy
system.cpu00.dcache.tags.occ_percent::total     0.983762                       # Average percentage of cache occupancy
system.cpu00.dcache.tags.occ_task_id_blocks::1024           64                       # Occupied blocks per task id
system.cpu00.dcache.tags.age_task_id_blocks_1024::0           55                       # Occupied blocks per task id
system.cpu00.dcache.tags.age_task_id_blocks_1024::1            9                       # Occupied blocks per task id
system.cpu00.dcache.tags.occ_task_id_percent::1024            1                       # Percentage of cache occupancy per task id
system.cpu00.dcache.tags.tag_accesses          560125                       # Number of tag accesses
system.cpu00.dcache.tags.data_accesses         560125                       # Number of data accesses
system.cpu00.dcache.ReadReq_hits::cpu00.data       136526                       # number of ReadReq hits
system.cpu00.dcache.ReadReq_hits::total        136526                       # number of ReadReq hits
system.cpu00.dcache.WriteReq_hits::cpu00.data        80778                       # number of WriteReq hits
system.cpu00.dcache.WriteReq_hits::total        80778                       # number of WriteReq hits
system.cpu00.dcache.LoadLockedReq_hits::cpu00.data          842                       # number of LoadLockedReq hits
system.cpu00.dcache.LoadLockedReq_hits::total          842                       # number of LoadLockedReq hits
system.cpu00.dcache.StoreCondReq_hits::cpu00.data         1116                       # number of StoreCondReq hits
system.cpu00.dcache.StoreCondReq_hits::total         1116                       # number of StoreCondReq hits
system.cpu00.dcache.demand_hits::cpu00.data       217304                       # number of demand (read+write) hits
system.cpu00.dcache.demand_hits::total         217304                       # number of demand (read+write) hits
system.cpu00.dcache.overall_hits::cpu00.data       217304                       # number of overall hits
system.cpu00.dcache.overall_hits::total        217304                       # number of overall hits
system.cpu00.dcache.ReadReq_misses::cpu00.data        14057                       # number of ReadReq misses
system.cpu00.dcache.ReadReq_misses::total        14057                       # number of ReadReq misses
system.cpu00.dcache.WriteReq_misses::cpu00.data        37632                       # number of WriteReq misses
system.cpu00.dcache.WriteReq_misses::total        37632                       # number of WriteReq misses
system.cpu00.dcache.LoadLockedReq_misses::cpu00.data          349                       # number of LoadLockedReq misses
system.cpu00.dcache.LoadLockedReq_misses::total          349                       # number of LoadLockedReq misses
system.cpu00.dcache.StoreCondReq_misses::cpu00.data            9                       # number of StoreCondReq misses
system.cpu00.dcache.StoreCondReq_misses::total            9                       # number of StoreCondReq misses
system.cpu00.dcache.demand_misses::cpu00.data        51689                       # number of demand (read+write) misses
system.cpu00.dcache.demand_misses::total        51689                       # number of demand (read+write) misses
system.cpu00.dcache.overall_misses::cpu00.data        51689                       # number of overall misses
system.cpu00.dcache.overall_misses::total        51689                       # number of overall misses
system.cpu00.dcache.ReadReq_miss_latency::cpu00.data    503831043                       # number of ReadReq miss cycles
system.cpu00.dcache.ReadReq_miss_latency::total    503831043                       # number of ReadReq miss cycles
system.cpu00.dcache.WriteReq_miss_latency::cpu00.data   5524031511                       # number of WriteReq miss cycles
system.cpu00.dcache.WriteReq_miss_latency::total   5524031511                       # number of WriteReq miss cycles
system.cpu00.dcache.LoadLockedReq_miss_latency::cpu00.data      3833622                       # number of LoadLockedReq miss cycles
system.cpu00.dcache.LoadLockedReq_miss_latency::total      3833622                       # number of LoadLockedReq miss cycles
system.cpu00.dcache.StoreCondReq_miss_latency::cpu00.data       355266                       # number of StoreCondReq miss cycles
system.cpu00.dcache.StoreCondReq_miss_latency::total       355266                       # number of StoreCondReq miss cycles
system.cpu00.dcache.demand_miss_latency::cpu00.data   6027862554                       # number of demand (read+write) miss cycles
system.cpu00.dcache.demand_miss_latency::total   6027862554                       # number of demand (read+write) miss cycles
system.cpu00.dcache.overall_miss_latency::cpu00.data   6027862554                       # number of overall miss cycles
system.cpu00.dcache.overall_miss_latency::total   6027862554                       # number of overall miss cycles
system.cpu00.dcache.ReadReq_accesses::cpu00.data       150583                       # number of ReadReq accesses(hits+misses)
system.cpu00.dcache.ReadReq_accesses::total       150583                       # number of ReadReq accesses(hits+misses)
system.cpu00.dcache.WriteReq_accesses::cpu00.data       118410                       # number of WriteReq accesses(hits+misses)
system.cpu00.dcache.WriteReq_accesses::total       118410                       # number of WriteReq accesses(hits+misses)
system.cpu00.dcache.LoadLockedReq_accesses::cpu00.data         1191                       # number of LoadLockedReq accesses(hits+misses)
system.cpu00.dcache.LoadLockedReq_accesses::total         1191                       # number of LoadLockedReq accesses(hits+misses)
system.cpu00.dcache.StoreCondReq_accesses::cpu00.data         1125                       # number of StoreCondReq accesses(hits+misses)
system.cpu00.dcache.StoreCondReq_accesses::total         1125                       # number of StoreCondReq accesses(hits+misses)
system.cpu00.dcache.demand_accesses::cpu00.data       268993                       # number of demand (read+write) accesses
system.cpu00.dcache.demand_accesses::total       268993                       # number of demand (read+write) accesses
system.cpu00.dcache.overall_accesses::cpu00.data       268993                       # number of overall (read+write) accesses
system.cpu00.dcache.overall_accesses::total       268993                       # number of overall (read+write) accesses
system.cpu00.dcache.ReadReq_miss_rate::cpu00.data     0.093351                       # miss rate for ReadReq accesses
system.cpu00.dcache.ReadReq_miss_rate::total     0.093351                       # miss rate for ReadReq accesses
system.cpu00.dcache.WriteReq_miss_rate::cpu00.data     0.317811                       # miss rate for WriteReq accesses
system.cpu00.dcache.WriteReq_miss_rate::total     0.317811                       # miss rate for WriteReq accesses
system.cpu00.dcache.LoadLockedReq_miss_rate::cpu00.data     0.293031                       # miss rate for LoadLockedReq accesses
system.cpu00.dcache.LoadLockedReq_miss_rate::total     0.293031                       # miss rate for LoadLockedReq accesses
system.cpu00.dcache.StoreCondReq_miss_rate::cpu00.data     0.008000                       # miss rate for StoreCondReq accesses
system.cpu00.dcache.StoreCondReq_miss_rate::total     0.008000                       # miss rate for StoreCondReq accesses
system.cpu00.dcache.demand_miss_rate::cpu00.data     0.192157                       # miss rate for demand accesses
system.cpu00.dcache.demand_miss_rate::total     0.192157                       # miss rate for demand accesses
system.cpu00.dcache.overall_miss_rate::cpu00.data     0.192157                       # miss rate for overall accesses
system.cpu00.dcache.overall_miss_rate::total     0.192157                       # miss rate for overall accesses
system.cpu00.dcache.ReadReq_avg_miss_latency::cpu00.data 35842.003486                       # average ReadReq miss latency
system.cpu00.dcache.ReadReq_avg_miss_latency::total 35842.003486                       # average ReadReq miss latency
system.cpu00.dcache.WriteReq_avg_miss_latency::cpu00.data 146790.803332                       # average WriteReq miss latency
system.cpu00.dcache.WriteReq_avg_miss_latency::total 146790.803332                       # average WriteReq miss latency
system.cpu00.dcache.LoadLockedReq_avg_miss_latency::cpu00.data 10984.590258                       # average LoadLockedReq miss latency
system.cpu00.dcache.LoadLockedReq_avg_miss_latency::total 10984.590258                       # average LoadLockedReq miss latency
system.cpu00.dcache.StoreCondReq_avg_miss_latency::cpu00.data        39474                       # average StoreCondReq miss latency
system.cpu00.dcache.StoreCondReq_avg_miss_latency::total        39474                       # average StoreCondReq miss latency
system.cpu00.dcache.demand_avg_miss_latency::cpu00.data 116617.898470                       # average overall miss latency
system.cpu00.dcache.demand_avg_miss_latency::total 116617.898470                       # average overall miss latency
system.cpu00.dcache.overall_avg_miss_latency::cpu00.data 116617.898470                       # average overall miss latency
system.cpu00.dcache.overall_avg_miss_latency::total 116617.898470                       # average overall miss latency
system.cpu00.dcache.blocked_cycles::no_mshrs       165211                       # number of cycles access was blocked
system.cpu00.dcache.blocked_cycles::no_targets            0                       # number of cycles access was blocked
system.cpu00.dcache.blocked::no_mshrs            3586                       # number of cycles access was blocked
system.cpu00.dcache.blocked::no_targets             0                       # number of cycles access was blocked
system.cpu00.dcache.avg_blocked_cycles::no_mshrs    46.071110                       # average number of cycles each access was blocked
system.cpu00.dcache.avg_blocked_cycles::no_targets          nan                       # average number of cycles each access was blocked
system.cpu00.dcache.fast_writes                     0                       # number of fast writes performed
system.cpu00.dcache.cache_copies                    0                       # number of cache copies performed
system.cpu00.dcache.writebacks::writebacks        12776                       # number of writebacks
system.cpu00.dcache.writebacks::total           12776                       # number of writebacks
system.cpu00.dcache.ReadReq_mshr_hits::cpu00.data         4436                       # number of ReadReq MSHR hits
system.cpu00.dcache.ReadReq_mshr_hits::total         4436                       # number of ReadReq MSHR hits
system.cpu00.dcache.WriteReq_mshr_hits::cpu00.data        29877                       # number of WriteReq MSHR hits
system.cpu00.dcache.WriteReq_mshr_hits::total        29877                       # number of WriteReq MSHR hits
system.cpu00.dcache.LoadLockedReq_mshr_hits::cpu00.data          158                       # number of LoadLockedReq MSHR hits
system.cpu00.dcache.LoadLockedReq_mshr_hits::total          158                       # number of LoadLockedReq MSHR hits
system.cpu00.dcache.demand_mshr_hits::cpu00.data        34313                       # number of demand (read+write) MSHR hits
system.cpu00.dcache.demand_mshr_hits::total        34313                       # number of demand (read+write) MSHR hits
system.cpu00.dcache.overall_mshr_hits::cpu00.data        34313                       # number of overall MSHR hits
system.cpu00.dcache.overall_mshr_hits::total        34313                       # number of overall MSHR hits
system.cpu00.dcache.ReadReq_mshr_misses::cpu00.data         9621                       # number of ReadReq MSHR misses
system.cpu00.dcache.ReadReq_mshr_misses::total         9621                       # number of ReadReq MSHR misses
system.cpu00.dcache.WriteReq_mshr_misses::cpu00.data         7755                       # number of WriteReq MSHR misses
system.cpu00.dcache.WriteReq_mshr_misses::total         7755                       # number of WriteReq MSHR misses
system.cpu00.dcache.LoadLockedReq_mshr_misses::cpu00.data          191                       # number of LoadLockedReq MSHR misses
system.cpu00.dcache.LoadLockedReq_mshr_misses::total          191                       # number of LoadLockedReq MSHR misses
system.cpu00.dcache.StoreCondReq_mshr_misses::cpu00.data            8                       # number of StoreCondReq MSHR misses
system.cpu00.dcache.StoreCondReq_mshr_misses::total            8                       # number of StoreCondReq MSHR misses
system.cpu00.dcache.demand_mshr_misses::cpu00.data        17376                       # number of demand (read+write) MSHR misses
system.cpu00.dcache.demand_mshr_misses::total        17376                       # number of demand (read+write) MSHR misses
system.cpu00.dcache.overall_mshr_misses::cpu00.data        17376                       # number of overall MSHR misses
system.cpu00.dcache.overall_mshr_misses::total        17376                       # number of overall MSHR misses
system.cpu00.dcache.ReadReq_mshr_miss_latency::cpu00.data    289177236                       # number of ReadReq MSHR miss cycles
system.cpu00.dcache.ReadReq_mshr_miss_latency::total    289177236                       # number of ReadReq MSHR miss cycles
system.cpu00.dcache.WriteReq_mshr_miss_latency::cpu00.data   1173085869                       # number of WriteReq MSHR miss cycles
system.cpu00.dcache.WriteReq_mshr_miss_latency::total   1173085869                       # number of WriteReq MSHR miss cycles
system.cpu00.dcache.LoadLockedReq_mshr_miss_latency::cpu00.data      1878498                       # number of LoadLockedReq MSHR miss cycles
system.cpu00.dcache.LoadLockedReq_mshr_miss_latency::total      1878498                       # number of LoadLockedReq MSHR miss cycles
system.cpu00.dcache.StoreCondReq_mshr_miss_latency::cpu00.data       345978                       # number of StoreCondReq MSHR miss cycles
system.cpu00.dcache.StoreCondReq_mshr_miss_latency::total       345978                       # number of StoreCondReq MSHR miss cycles
system.cpu00.dcache.demand_mshr_miss_latency::cpu00.data   1462263105                       # number of demand (read+write) MSHR miss cycles
system.cpu00.dcache.demand_mshr_miss_latency::total   1462263105                       # number of demand (read+write) MSHR miss cycles
system.cpu00.dcache.overall_mshr_miss_latency::cpu00.data   1462263105                       # number of overall MSHR miss cycles
system.cpu00.dcache.overall_mshr_miss_latency::total   1462263105                       # number of overall MSHR miss cycles
system.cpu00.dcache.ReadReq_mshr_miss_rate::cpu00.data     0.063892                       # mshr miss rate for ReadReq accesses
system.cpu00.dcache.ReadReq_mshr_miss_rate::total     0.063892                       # mshr miss rate for ReadReq accesses
system.cpu00.dcache.WriteReq_mshr_miss_rate::cpu00.data     0.065493                       # mshr miss rate for WriteReq accesses
system.cpu00.dcache.WriteReq_mshr_miss_rate::total     0.065493                       # mshr miss rate for WriteReq accesses
system.cpu00.dcache.LoadLockedReq_mshr_miss_rate::cpu00.data     0.160369                       # mshr miss rate for LoadLockedReq accesses
system.cpu00.dcache.LoadLockedReq_mshr_miss_rate::total     0.160369                       # mshr miss rate for LoadLockedReq accesses
system.cpu00.dcache.StoreCondReq_mshr_miss_rate::cpu00.data     0.007111                       # mshr miss rate for StoreCondReq accesses
system.cpu00.dcache.StoreCondReq_mshr_miss_rate::total     0.007111                       # mshr miss rate for StoreCondReq accesses
system.cpu00.dcache.demand_mshr_miss_rate::cpu00.data     0.064596                       # mshr miss rate for demand accesses
system.cpu00.dcache.demand_mshr_miss_rate::total     0.064596                       # mshr miss rate for demand accesses
system.cpu00.dcache.overall_mshr_miss_rate::cpu00.data     0.064596                       # mshr miss rate for overall accesses
system.cpu00.dcache.overall_mshr_miss_rate::total     0.064596                       # mshr miss rate for overall accesses
system.cpu00.dcache.ReadReq_avg_mshr_miss_latency::cpu00.data 30056.879326                       # average ReadReq mshr miss latency
system.cpu00.dcache.ReadReq_avg_mshr_miss_latency::total 30056.879326                       # average ReadReq mshr miss latency
system.cpu00.dcache.WriteReq_avg_mshr_miss_latency::cpu00.data 151268.326112                       # average WriteReq mshr miss latency
system.cpu00.dcache.WriteReq_avg_mshr_miss_latency::total 151268.326112                       # average WriteReq mshr miss latency
[...]
system.tol2bus.pkt_count_system.cpu06.dcache.mem_side::system.l2.cpu_side         4834                       # Packet count per connected master and slave (bytes)
system.tol2bus.pkt_count_system.cpu07.icache.mem_side::system.l2.cpu_side         2615                       # Packet count per connected master and slave (bytes)
system.tol2bus.pkt_count_system.cpu07.dcache.mem_side::system.l2.cpu_side         3953                       # Packet count per connected master and slave (bytes)
system.tol2bus.pkt_count_system.cpu08.icache.mem_side::system.l2.cpu_side         1541                       # Packet count per connected master and slave (bytes)
system.tol2bus.pkt_count_system.cpu08.dcache.mem_side::system.l2.cpu_side         2371                       # Packet count per connected master and slave (bytes)
system.tol2bus.pkt_count_system.cpu09.icache.mem_side::system.l2.cpu_side         1232                       # Packet count per connected master and slave (bytes)
system.tol2bus.pkt_count_system.cpu09.dcache.mem_side::system.l2.cpu_side         1586                       # Packet count per connected master and slave (bytes)
system.tol2bus.pkt_count_system.cpu10.icache.mem_side::system.l2.cpu_side         2767                       # Packet count per connected master and slave (bytes)
system.tol2bus.pkt_count_system.cpu10.dcache.mem_side::system.l2.cpu_side         4642                       # Packet count per connected master and slave (bytes)
system.tol2bus.pkt_count_system.cpu11.icache.mem_side::system.l2.cpu_side         1973                       # Packet count per connected master and slave (bytes)
system.tol2bus.pkt_count_system.cpu11.dcache.mem_side::system.l2.cpu_side         2635                       # Packet count per connected master and slave (bytes)
system.tol2bus.pkt_count_system.cpu12.icache.mem_side::system.l2.cpu_side         2147                       # Packet count per connected master and slave (bytes)
system.tol2bus.pkt_count_system.cpu12.dcache.mem_side::system.l2.cpu_side         3298                       # Packet count per connected master and slave (bytes)
system.tol2bus.pkt_count_system.cpu13.icache.mem_side::system.l2.cpu_side         2750                       # Packet count per connected master and slave (bytes)
system.tol2bus.pkt_count_system.cpu13.dcache.mem_side::system.l2.cpu_side         4767                       # Packet count per connected master and slave (bytes)
system.tol2bus.pkt_count_system.cpu14.icache.mem_side::system.l2.cpu_side          919                       # Packet count per connected master and slave (bytes)
system.tol2bus.pkt_count_system.cpu14.dcache.mem_side::system.l2.cpu_side         1550                       # Packet count per connected master and slave (bytes)
system.tol2bus.pkt_count_system.cpu15.icache.mem_side::system.l2.cpu_side         1010                       # Packet count per connected master and slave (bytes)
system.tol2bus.pkt_count_system.cpu15.dcache.mem_side::system.l2.cpu_side         1550                       # Packet count per connected master and slave (bytes)
system.tol2bus.pkt_count::total                149050                       # Packet count per connected master and slave (bytes)
system.tol2bus.pkt_size_system.cpu00.icache.mem_side::system.l2.cpu_side       977152                       # Cumulative packet size per connected master and slave (bytes)
system.tol2bus.pkt_size_system.cpu00.dcache.mem_side::system.l2.cpu_side      1916928                       # Cumulative packet size per connected master and slave (bytes)
system.tol2bus.pkt_size_system.cpu01.icache.mem_side::system.l2.cpu_side        88448                       # Cumulative packet size per connected master and slave (bytes)
system.tol2bus.pkt_size_system.cpu01.dcache.mem_side::system.l2.cpu_side       100096                       # Cumulative packet size per connected master and slave (bytes)
system.tol2bus.pkt_size_system.cpu02.icache.mem_side::system.l2.cpu_side        87296                       # Cumulative packet size per connected master and slave (bytes)
system.tol2bus.pkt_size_system.cpu02.dcache.mem_side::system.l2.cpu_side        84032                       # Cumulative packet size per connected master and slave (bytes)
system.tol2bus.pkt_size_system.cpu03.icache.mem_side::system.l2.cpu_side        62976                       # Cumulative packet size per connected master and slave (bytes)
system.tol2bus.pkt_size_system.cpu03.dcache.mem_side::system.l2.cpu_side        61312                       # Cumulative packet size per connected master and slave (bytes)
system.tol2bus.pkt_size_system.cpu04.icache.mem_side::system.l2.cpu_side        82240                       # Cumulative packet size per connected master and slave (bytes)
system.tol2bus.pkt_size_system.cpu04.dcache.mem_side::system.l2.cpu_side        94016                       # Cumulative packet size per connected master and slave (bytes)
system.tol2bus.pkt_size_system.cpu05.icache.mem_side::system.l2.cpu_side        40448                       # Cumulative packet size per connected master and slave (bytes)
system.tol2bus.pkt_size_system.cpu05.dcache.mem_side::system.l2.cpu_side        42880                       # Cumulative packet size per connected master and slave (bytes)
system.tol2bus.pkt_size_system.cpu06.icache.mem_side::system.l2.cpu_side        99072                       # Cumulative packet size per connected master and slave (bytes)
system.tol2bus.pkt_size_system.cpu06.dcache.mem_side::system.l2.cpu_side       128256                       # Cumulative packet size per connected master and slave (bytes)
system.tol2bus.pkt_size_system.cpu07.icache.mem_side::system.l2.cpu_side       101248                       # Cumulative packet size per connected master and slave (bytes)
system.tol2bus.pkt_size_system.cpu07.dcache.mem_side::system.l2.cpu_side       108160                       # Cumulative packet size per connected master and slave (bytes)
system.tol2bus.pkt_size_system.cpu08.icache.mem_side::system.l2.cpu_side        55936                       # Cumulative packet size per connected master and slave (bytes)
system.tol2bus.pkt_size_system.cpu08.dcache.mem_side::system.l2.cpu_side        68032                       # Cumulative packet size per connected master and slave (bytes)
system.tol2bus.pkt_size_system.cpu09.icache.mem_side::system.l2.cpu_side        43392                       # Cumulative packet size per connected master and slave (bytes)
system.tol2bus.pkt_size_system.cpu09.dcache.mem_side::system.l2.cpu_side        51008                       # Cumulative packet size per connected master and slave (bytes)
system.tol2bus.pkt_size_system.cpu10.icache.mem_side::system.l2.cpu_side       107712                       # Cumulative packet size per connected master and slave (bytes)
system.tol2bus.pkt_size_system.cpu10.dcache.mem_side::system.l2.cpu_side       123520                       # Cumulative packet size per connected master and slave (bytes)
system.tol2bus.pkt_size_system.cpu11.icache.mem_side::system.l2.cpu_side        74240                       # Cumulative packet size per connected master and slave (bytes)
system.tol2bus.pkt_size_system.cpu11.dcache.mem_side::system.l2.cpu_side        72960                       # Cumulative packet size per connected master and slave (bytes)
system.tol2bus.pkt_size_system.cpu12.icache.mem_side::system.l2.cpu_side        81600                       # Cumulative packet size per connected master and slave (bytes)
system.tol2bus.pkt_size_system.cpu12.dcache.mem_side::system.l2.cpu_side        96448                       # Cumulative packet size per connected master and slave (bytes)
system.tol2bus.pkt_size_system.cpu13.icache.mem_side::system.l2.cpu_side       107392                       # Cumulative packet size per connected master and slave (bytes)
system.tol2bus.pkt_size_system.cpu13.dcache.mem_side::system.l2.cpu_side       136832                       # Cumulative packet size per connected master and slave (bytes)
system.tol2bus.pkt_size_system.cpu14.icache.mem_side::system.l2.cpu_side        31104                       # Cumulative packet size per connected master and slave (bytes)
system.tol2bus.pkt_size_system.cpu14.dcache.mem_side::system.l2.cpu_side        51520                       # Cumulative packet size per connected master and slave (bytes)
system.tol2bus.pkt_size_system.cpu15.icache.mem_side::system.l2.cpu_side        34752                       # Cumulative packet size per connected master and slave (bytes)
system.tol2bus.pkt_size_system.cpu15.dcache.mem_side::system.l2.cpu_side        50432                       # Cumulative packet size per connected master and slave (bytes)
system.tol2bus.pkt_size::total                5261440                       # Cumulative packet size per connected master and slave (bytes)
system.tol2bus.snoops                            8120                       # Total snoops (count)
system.tol2bus.snoop_fanout::samples            58051                       # Request fanout histogram
system.tol2bus.snoop_fanout::mean            1.939674                       # Request fanout histogram
system.tol2bus.snoop_fanout::stdev           3.639275                       # Request fanout histogram
system.tol2bus.snoop_fanout::underflows             0      0.00%      0.00% # Request fanout histogram
system.tol2bus.snoop_fanout::0                  35893     61.83%     61.83% # Request fanout histogram
system.tol2bus.snoop_fanout::1                   7514     12.94%     74.77% # Request fanout histogram
system.tol2bus.snoop_fanout::2                   1954      3.37%     78.14% # Request fanout histogram
system.tol2bus.snoop_fanout::3                   1415      2.44%     80.58% # Request fanout histogram
system.tol2bus.snoop_fanout::4                   1367      2.35%     82.93% # Request fanout histogram
system.tol2bus.snoop_fanout::5                   1275      2.20%     85.13% # Request fanout histogram
system.tol2bus.snoop_fanout::6                   1162      2.00%     87.13% # Request fanout histogram
system.tol2bus.snoop_fanout::7                   1098      1.89%     89.02% # Request fanout histogram
system.tol2bus.snoop_fanout::8                   1024      1.76%     90.79% # Request fanout histogram
system.tol2bus.snoop_fanout::9                    952      1.64%     92.43% # Request fanout histogram
system.tol2bus.snoop_fanout::10                   872      1.50%     93.93% # Request fanout histogram
system.tol2bus.snoop_fanout::11                   878      1.51%     95.44% # Request fanout histogram
system.tol2bus.snoop_fanout::12                   770      1.33%     96.77% # Request fanout histogram
system.tol2bus.snoop_fanout::13                   711      1.22%     97.99% # Request fanout histogram
system.tol2bus.snoop_fanout::14                   684      1.18%     99.17% # Request fanout histogram
system.tol2bus.snoop_fanout::15                   477      0.82%     99.99% # Request fanout histogram
system.tol2bus.snoop_fanout::16                     5      0.01%    100.00% # Request fanout histogram
system.tol2bus.snoop_fanout::17                     0      0.00%    100.00% # Request fanout histogram
system.tol2bus.snoop_fanout::18                     0      0.00%    100.00% # Request fanout histogram
system.tol2bus.snoop_fanout::19                     0      0.00%    100.00% # Request fanout histogram
system.tol2bus.snoop_fanout::20                     0      0.00%    100.00% # Request fanout histogram
system.tol2bus.snoop_fanout::21                     0      0.00%    100.00% # Request fanout histogram
system.tol2bus.snoop_fanout::22                     0      0.00%    100.00% # Request fanout histogram
system.tol2bus.snoop_fanout::23                     0      0.00%    100.00% # Request fanout histogram
system.tol2bus.snoop_fanout::24                     0      0.00%    100.00% # Request fanout histogram
system.tol2bus.snoop_fanout::25                     0      0.00%    100.00% # Request fanout histogram
system.tol2bus.snoop_fanout::26                     0      0.00%    100.00% # Request fanout histogram
system.tol2bus.snoop_fanout::27                     0      0.00%    100.00% # Request fanout histogram
system.tol2bus.snoop_fanout::28                     0      0.00%    100.00% # Request fanout histogram
system.tol2bus.snoop_fanout::29                     0      0.00%    100.00% # Request fanout histogram
system.tol2bus.snoop_fanout::30                     0      0.00%    100.00% # Request fanout histogram
system.tol2bus.snoop_fanout::31                     0      0.00%    100.00% # Request fanout histogram
system.tol2bus.snoop_fanout::32                     0      0.00%    100.00% # Request fanout histogram
system.tol2bus.snoop_fanout::overflows              0      0.00%    100.00% # Request fanout histogram
system.tol2bus.snoop_fanout::min_value              0                       # Request fanout histogram
system.tol2bus.snoop_fanout::max_value             16                       # Request fanout histogram
system.tol2bus.snoop_fanout::total              58051                       # Request fanout histogram
system.tol2bus.reqLayer0.occupancy          192832683                       # Layer occupancy (ticks)
system.tol2bus.reqLayer0.utilization             14.7                       # Layer utilization (%)
system.tol2bus.respLayer0.occupancy          27868758                       # Layer occupancy (ticks)
system.tol2bus.respLayer0.utilization             2.1                       # Layer utilization (%)
system.tol2bus.respLayer1.occupancy          61335373                       # Layer occupancy (ticks)
system.tol2bus.respLayer1.utilization             4.7                       # Layer utilization (%)
system.tol2bus.respLayer2.occupancy           3363678                       # Layer occupancy (ticks)
system.tol2bus.respLayer2.utilization             0.3                       # Layer utilization (%)
system.tol2bus.respLayer3.occupancy           5540107                       # Layer occupancy (ticks)
system.tol2bus.respLayer3.utilization             0.4                       # Layer utilization (%)
system.tol2bus.respLayer4.occupancy           3342132                       # Layer occupancy (ticks)
system.tol2bus.respLayer4.utilization             0.3                       # Layer utilization (%)
system.tol2bus.respLayer5.occupancy           3564144                       # Layer occupancy (ticks)
system.tol2bus.respLayer5.utilization             0.3                       # Layer utilization (%)
system.tol2bus.respLayer6.occupancy           2608043                       # Layer occupancy (ticks)
system.tol2bus.respLayer6.utilization             0.2                       # Layer utilization (%)
system.tol2bus.respLayer7.occupancy           2742194                       # Layer occupancy (ticks)
system.tol2bus.respLayer7.utilization             0.2                       # Layer utilization (%)
system.tol2bus.respLayer8.occupancy           3150913                       # Layer occupancy (ticks)
system.tol2bus.respLayer8.utilization             0.2                       # Layer utilization (%)
system.tol2bus.respLayer9.occupancy           5011372                       # Layer occupancy (ticks)
system.tol2bus.respLayer9.utilization             0.4                       # Layer utilization (%)
system.tol2bus.respLayer10.occupancy          1890911                       # Layer occupancy (ticks)
system.tol2bus.respLayer10.utilization            0.1                       # Layer utilization (%)
system.tol2bus.respLayer11.occupancy          2089732                       # Layer occupancy (ticks)
system.tol2bus.respLayer11.utilization            0.2                       # Layer utilization (%)
system.tol2bus.respLayer12.occupancy          3614248                       # Layer occupancy (ticks)
system.tol2bus.respLayer12.utilization            0.3                       # Layer utilization (%)
system.tol2bus.respLayer13.occupancy          6806710                       # Layer occupancy (ticks)
system.tol2bus.respLayer13.utilization            0.5                       # Layer utilization (%)
system.tol2bus.respLayer14.occupancy          3687135                       # Layer occupancy (ticks)
system.tol2bus.respLayer14.utilization            0.3                       # Layer utilization (%)
system.tol2bus.respLayer15.occupancy          5649292                       # Layer occupancy (ticks)
system.tol2bus.respLayer15.utilization            0.4                       # Layer utilization (%)
system.tol2bus.respLayer16.occupancy          2398281                       # Layer occupancy (ticks)
system.tol2bus.respLayer16.utilization            0.2                       # Layer utilization (%)
system.tol2bus.respLayer17.occupancy          2992925                       # Layer occupancy (ticks)
system.tol2bus.respLayer17.utilization            0.2                       # Layer utilization (%)
system.tol2bus.respLayer18.occupancy          1995884                       # Layer occupancy (ticks)
system.tol2bus.respLayer18.utilization            0.2                       # Layer utilization (%)
system.tol2bus.respLayer19.occupancy          2133473                       # Layer occupancy (ticks)
system.tol2bus.respLayer19.utilization            0.2                       # Layer utilization (%)
system.tol2bus.respLayer20.occupancy          3880616                       # Layer occupancy (ticks)
system.tol2bus.respLayer20.utilization            0.3                       # Layer utilization (%)
system.tol2bus.respLayer21.occupancy          6588521                       # Layer occupancy (ticks)
system.tol2bus.respLayer21.utilization            0.5                       # Layer utilization (%)
system.tol2bus.respLayer22.occupancy          2932221                       # Layer occupancy (ticks)
system.tol2bus.respLayer22.utilization            0.2                       # Layer utilization (%)
system.tol2bus.respLayer23.occupancy          3857666                       # Layer occupancy (ticks)
system.tol2bus.respLayer23.utilization            0.3                       # Layer utilization (%)
system.tol2bus.respLayer24.occupancy          3130179                       # Layer occupancy (ticks)
system.tol2bus.respLayer24.utilization            0.2                       # Layer utilization (%)
system.tol2bus.respLayer25.occupancy          4583503                       # Layer occupancy (ticks)
system.tol2bus.respLayer25.utilization            0.3                       # Layer utilization (%)
system.tol2bus.respLayer26.occupancy          3817124                       # Layer occupancy (ticks)
system.tol2bus.respLayer26.utilization            0.3                       # Layer utilization (%)
system.tol2bus.respLayer27.occupancy          6763790                       # Layer occupancy (ticks)
system.tol2bus.respLayer27.utilization            0.5                       # Layer utilization (%)
system.tol2bus.respLayer28.occupancy          1557561                       # Layer occupancy (ticks)
system.tol2bus.respLayer28.utilization            0.1                       # Layer utilization (%)
system.tol2bus.respLayer29.occupancy          2058625                       # Layer occupancy (ticks)
system.tol2bus.respLayer29.utilization            0.2                       # Layer utilization (%)
system.tol2bus.respLayer30.occupancy          1659996                       # Layer occupancy (ticks)
system.tol2bus.respLayer30.utilization            0.1                       # Layer utilization (%)
system.tol2bus.respLayer31.occupancy          2087730                       # Layer occupancy (ticks)
system.tol2bus.respLayer31.utilization            0.2                       # Layer utilization (%)

---------- End Simulation Statistics   ----------
