
---------- Begin Simulation Statistics ----------
sim_seconds                                  0.010239                       # Number of seconds simulated
sim_ticks                                 10238936787                       # Number of ticks simulated
final_tick                                10238936787                       # Number of ticks from beginning of simulation (restored from checkpoints and never reset)
sim_freq                                 1000000000000                       # Frequency of simulated ticks
host_inst_rate                                 103839                       # Simulator instruction rate (inst/s)
host_op_rate                                   103839                       # Simulator op (including micro ops) rate (op/s)
host_tick_rate                               16607984                       # Simulator tick rate (ticks/s)
host_mem_usage                                 692808                       # Number of bytes of host memory used
host_seconds                                   616.51                       # Real time elapsed on the host
sim_insts                                    64017228                       # Number of instructions simulated
sim_ops                                      64017228                       # Number of ops (including micro ops) simulated
system.voltage_domain.voltage                       1                       # Voltage in Volts
system.clk_domain.clock                          1000                       # Clock period in ticks
system.mem_ctrls.bytes_read::cpu00.inst        129024                       # Number of bytes read from this memory
system.mem_ctrls.bytes_read::cpu00.data        872896                       # Number of bytes read from this memory
system.mem_ctrls.bytes_read::cpu01.inst         12736                       # Number of bytes read from this memory
system.mem_ctrls.bytes_read::cpu01.data        609600                       # Number of bytes read from this memory
system.mem_ctrls.bytes_read::cpu02.inst          1088                       # Number of bytes read from this memory
system.mem_ctrls.bytes_read::cpu02.data        532416                       # Number of bytes read from this memory
system.mem_ctrls.bytes_read::cpu03.inst           192                       # Number of bytes read from this memory
system.mem_ctrls.bytes_read::cpu03.data        522048                       # Number of bytes read from this memory
system.mem_ctrls.bytes_read::cpu04.inst           384                       # Number of bytes read from this memory
system.mem_ctrls.bytes_read::cpu04.data        570944                       # Number of bytes read from this memory
system.mem_ctrls.bytes_read::cpu05.inst           384                       # Number of bytes read from this memory
system.mem_ctrls.bytes_read::cpu05.data        531328                       # Number of bytes read from this memory
system.mem_ctrls.bytes_read::cpu06.inst           384                       # Number of bytes read from this memory
system.mem_ctrls.bytes_read::cpu06.data        528256                       # Number of bytes read from this memory
system.mem_ctrls.bytes_read::cpu07.inst           128                       # Number of bytes read from this memory
system.mem_ctrls.bytes_read::cpu07.data        562368                       # Number of bytes read from this memory
system.mem_ctrls.bytes_read::cpu08.inst            64                       # Number of bytes read from this memory
system.mem_ctrls.bytes_read::cpu08.data        563968                       # Number of bytes read from this memory
system.mem_ctrls.bytes_read::cpu09.data        520256                       # Number of bytes read from this memory
system.mem_ctrls.bytes_read::cpu10.data        527488                       # Number of bytes read from this memory
system.mem_ctrls.bytes_read::cpu11.inst            64                       # Number of bytes read from this memory
system.mem_ctrls.bytes_read::cpu11.data        520512                       # Number of bytes read from this memory
system.mem_ctrls.bytes_read::cpu12.inst          1216                       # Number of bytes read from this memory
system.mem_ctrls.bytes_read::cpu12.data        549120                       # Number of bytes read from this memory
system.mem_ctrls.bytes_read::cpu13.data        515712                       # Number of bytes read from this memory
system.mem_ctrls.bytes_read::cpu14.inst           128                       # Number of bytes read from this memory
system.mem_ctrls.bytes_read::cpu14.data        528960                       # Number of bytes read from this memory
system.mem_ctrls.bytes_read::cpu15.inst           896                       # Number of bytes read from this memory
system.mem_ctrls.bytes_read::cpu15.data        549376                       # Number of bytes read from this memory
system.mem_ctrls.bytes_read::total            9151936                       # Number of bytes read from this memory
system.mem_ctrls.bytes_inst_read::cpu00.inst       129024                       # Number of instructions bytes read from this memory
system.mem_ctrls.bytes_inst_read::cpu01.inst        12736                       # Number of instructions bytes read from this memory
system.mem_ctrls.bytes_inst_read::cpu02.inst         1088                       # Number of instructions bytes read from this memory
system.mem_ctrls.bytes_inst_read::cpu03.inst          192                       # Number of instructions bytes read from this memory
system.mem_ctrls.bytes_inst_read::cpu04.inst          384                       # Number of instructions bytes read from this memory
system.mem_ctrls.bytes_inst_read::cpu05.inst          384                       # Number of instructions bytes read from this memory
system.mem_ctrls.bytes_inst_read::cpu06.inst          384                       # Number of instructions bytes read from this memory
system.mem_ctrls.bytes_inst_read::cpu07.inst          128                       # Number of instructions bytes read from this memory
system.mem_ctrls.bytes_inst_read::cpu08.inst           64                       # Number of instructions bytes read from this memory
system.mem_ctrls.bytes_inst_read::cpu11.inst           64                       # Number of instructions bytes read from this memory
system.mem_ctrls.bytes_inst_read::cpu12.inst         1216                       # Number of instructions bytes read from this memory
system.mem_ctrls.bytes_inst_read::cpu14.inst          128                       # Number of instructions bytes read from this memory
system.mem_ctrls.bytes_inst_read::cpu15.inst          896                       # Number of instructions bytes read from this memory
system.mem_ctrls.bytes_inst_read::total        146688                       # Number of instructions bytes read from this memory
system.mem_ctrls.bytes_written::writebacks      5625216                       # Number of bytes written to this memory
system.mem_ctrls.bytes_written::total         5625216                       # Number of bytes written to this memory
system.mem_ctrls.num_reads::cpu00.inst           2016                       # Number of read requests responded to by this memory
system.mem_ctrls.num_reads::cpu00.data          13639                       # Number of read requests responded to by this memory
system.mem_ctrls.num_reads::cpu01.inst            199                       # Number of read requests responded to by this memory
system.mem_ctrls.num_reads::cpu01.data           9525                       # Number of read requests responded to by this memory
system.mem_ctrls.num_reads::cpu02.inst             17                       # Number of read requests responded to by this memory
system.mem_ctrls.num_reads::cpu02.data           8319                       # Number of read requests responded to by this memory
system.mem_ctrls.num_reads::cpu03.inst              3                       # Number of read requests responded to by this memory
system.mem_ctrls.num_reads::cpu03.data           8157                       # Number of read requests responded to by this memory
system.mem_ctrls.num_reads::cpu04.inst              6                       # Number of read requests responded to by this memory
system.mem_ctrls.num_reads::cpu04.data           8921                       # Number of read requests responded to by this memory
system.mem_ctrls.num_reads::cpu05.inst              6                       # Number of read requests responded to by this memory
system.mem_ctrls.num_reads::cpu05.data           8302                       # Number of read requests responded to by this memory
system.mem_ctrls.num_reads::cpu06.inst              6                       # Number of read requests responded to by this memory
system.mem_ctrls.num_reads::cpu06.data           8254                       # Number of read requests responded to by this memory
system.mem_ctrls.num_reads::cpu07.inst              2                       # Number of read requests responded to by this memory
system.mem_ctrls.num_reads::cpu07.data           8787                       # Number of read requests responded to by this memory
system.mem_ctrls.num_reads::cpu08.inst              1                       # Number of read requests responded to by this memory
system.mem_ctrls.num_reads::cpu08.data           8812                       # Number of read requests responded to by this memory
system.mem_ctrls.num_reads::cpu09.data           8129                       # Number of read requests responded to by this memory
system.mem_ctrls.num_reads::cpu10.data           8242                       # Number of read requests responded to by this memory
system.mem_ctrls.num_reads::cpu11.inst              1                       # Number of read requests responded to by this memory
system.mem_ctrls.num_reads::cpu11.data           8133                       # Number of read requests responded to by this memory
system.mem_ctrls.num_reads::cpu12.inst             19                       # Number of read requests responded to by this memory
system.mem_ctrls.num_reads::cpu12.data           8580                       # Number of read requests responded to by this memory
system.mem_ctrls.num_reads::cpu13.data           8058                       # Number of read requests responded to by this memory
system.mem_ctrls.num_reads::cpu14.inst              2                       # Number of read requests responded to by this memory
system.mem_ctrls.num_reads::cpu14.data           8265                       # Number of read requests responded to by this memory
system.mem_ctrls.num_reads::cpu15.inst             14                       # Number of read requests responded to by this memory
system.mem_ctrls.num_reads::cpu15.data           8584                       # Number of read requests responded to by this memory
system.mem_ctrls.num_reads::total              142999                       # Number of read requests responded to by this memory
system.mem_ctrls.num_writes::writebacks         87894                       # Number of write requests responded to by this memory
system.mem_ctrls.num_writes::total              87894                       # Number of write requests responded to by this memory
system.mem_ctrls.bw_read::cpu00.inst         12601308                       # Total read bandwidth from this memory (bytes/s)
system.mem_ctrls.bw_read::cpu00.data         85252602                       # Total read bandwidth from this memory (bytes/s)
system.mem_ctrls.bw_read::cpu01.inst          1243879                       # Total read bandwidth from this memory (bytes/s)
system.mem_ctrls.bw_read::cpu01.data         59537432                       # Total read bandwidth from this memory (bytes/s)
system.mem_ctrls.bw_read::cpu02.inst           106261                       # Total read bandwidth from this memory (bytes/s)
system.mem_ctrls.bw_read::cpu02.data         51999149                       # Total read bandwidth from this memory (bytes/s)
system.mem_ctrls.bw_read::cpu03.inst            18752                       # Total read bandwidth from this memory (bytes/s)
system.mem_ctrls.bw_read::cpu03.data         50986544                       # Total read bandwidth from this memory (bytes/s)
system.mem_ctrls.bw_read::cpu04.inst            37504                       # Total read bandwidth from this memory (bytes/s)
system.mem_ctrls.bw_read::cpu04.data         55762040                       # Total read bandwidth from this memory (bytes/s)
system.mem_ctrls.bw_read::cpu05.inst            37504                       # Total read bandwidth from this memory (bytes/s)
system.mem_ctrls.bw_read::cpu05.data         51892888                       # Total read bandwidth from this memory (bytes/s)
system.mem_ctrls.bw_read::cpu06.inst            37504                       # Total read bandwidth from this memory (bytes/s)
system.mem_ctrls.bw_read::cpu06.data         51592857                       # Total read bandwidth from this memory (bytes/s)
system.mem_ctrls.bw_read::cpu07.inst            12501                       # Total read bandwidth from this memory (bytes/s)
system.mem_ctrls.bw_read::cpu07.data         54924453                       # Total read bandwidth from this memory (bytes/s)
system.mem_ctrls.bw_read::cpu08.inst             6251                       # Total read bandwidth from this memory (bytes/s)
system.mem_ctrls.bw_read::cpu08.data         55080719                       # Total read bandwidth from this memory (bytes/s)
system.mem_ctrls.bw_read::cpu09.data         50811526                       # Total read bandwidth from this memory (bytes/s)
system.mem_ctrls.bw_read::cpu10.data         51517849                       # Total read bandwidth from this memory (bytes/s)
system.mem_ctrls.bw_read::cpu11.inst             6251                       # Total read bandwidth from this memory (bytes/s)
system.mem_ctrls.bw_read::cpu11.data         50836528                       # Total read bandwidth from this memory (bytes/s)
system.mem_ctrls.bw_read::cpu12.inst           118762                       # Total read bandwidth from this memory (bytes/s)
system.mem_ctrls.bw_read::cpu12.data         53630568                       # Total read bandwidth from this memory (bytes/s)
system.mem_ctrls.bw_read::cpu13.data         50367730                       # Total read bandwidth from this memory (bytes/s)
system.mem_ctrls.bw_read::cpu14.inst            12501                       # Total read bandwidth from this memory (bytes/s)
system.mem_ctrls.bw_read::cpu14.data         51661614                       # Total read bandwidth from this memory (bytes/s)
system.mem_ctrls.bw_read::cpu15.inst            87509                       # Total read bandwidth from this memory (bytes/s)
system.mem_ctrls.bw_read::cpu15.data         53655571                       # Total read bandwidth from this memory (bytes/s)
system.mem_ctrls.bw_read::total             893836557                       # Total read bandwidth from this memory (bytes/s)
system.mem_ctrls.bw_inst_read::cpu00.inst     12601308                       # Instruction read bandwidth from this memory (bytes/s)
system.mem_ctrls.bw_inst_read::cpu01.inst      1243879                       # Instruction read bandwidth from this memory (bytes/s)
system.mem_ctrls.bw_inst_read::cpu02.inst       106261                       # Instruction read bandwidth from this memory (bytes/s)
system.mem_ctrls.bw_inst_read::cpu03.inst        18752                       # Instruction read bandwidth from this memory (bytes/s)
system.mem_ctrls.bw_inst_read::cpu04.inst        37504                       # Instruction read bandwidth from this memory (bytes/s)
system.mem_ctrls.bw_inst_read::cpu05.inst        37504                       # Instruction read bandwidth from this memory (bytes/s)
system.mem_ctrls.bw_inst_read::cpu06.inst        37504                       # Instruction read bandwidth from this memory (bytes/s)
system.mem_ctrls.bw_inst_read::cpu07.inst        12501                       # Instruction read bandwidth from this memory (bytes/s)
system.mem_ctrls.bw_inst_read::cpu08.inst         6251                       # Instruction read bandwidth from this memory (bytes/s)
system.mem_ctrls.bw_inst_read::cpu11.inst         6251                       # Instruction read bandwidth from this memory (bytes/s)
system.mem_ctrls.bw_inst_read::cpu12.inst       118762                       # Instruction read bandwidth from this memory (bytes/s)
system.mem_ctrls.bw_inst_read::cpu14.inst        12501                       # Instruction read bandwidth from this memory (bytes/s)
system.mem_ctrls.bw_inst_read::cpu15.inst        87509                       # Instruction read bandwidth from this memory (bytes/s)
system.mem_ctrls.bw_inst_read::total         14326488                       # Instruction read bandwidth from this memory (bytes/s)
system.mem_ctrls.bw_write::writebacks       549394543                       # Write bandwidth from this memory (bytes/s)
system.mem_ctrls.bw_write::total            549394543                       # Write bandwidth from this memory (bytes/s)
system.mem_ctrls.bw_total::writebacks       549394543                       # Total bandwidth to/from this memory (bytes/s)
system.mem_ctrls.bw_total::cpu00.inst        12601308                       # Total bandwidth to/from this memory (bytes/s)
system.mem_ctrls.bw_total::cpu00.data        85252602                       # Total bandwidth to/from this memory (bytes/s)
system.mem_ctrls.bw_total::cpu01.inst         1243879                       # Total bandwidth to/from this memory (bytes/s)
system.mem_ctrls.bw_total::cpu01.data        59537432                       # Total bandwidth to/from this memory (bytes/s)
system.mem_ctrls.bw_total::cpu02.inst          106261                       # Total bandwidth to/from this memory (bytes/s)
system.mem_ctrls.bw_total::cpu02.data        51999149                       # Total bandwidth to/from this memory (bytes/s)
system.mem_ctrls.bw_total::cpu03.inst           18752                       # Total bandwidth to/from this memory (bytes/s)
system.mem_ctrls.bw_total::cpu03.data        50986544                       # Total bandwidth to/from this memory (bytes/s)
system.mem_ctrls.bw_total::cpu04.inst           37504                       # Total bandwidth to/from this memory (bytes/s)
system.mem_ctrls.bw_total::cpu04.data        55762040                       # Total bandwidth to/from this memory (bytes/s)
system.mem_ctrls.bw_total::cpu05.inst           37504                       # Total bandwidth to/from this memory (bytes/s)
system.mem_ctrls.bw_total::cpu05.data        51892888                       # Total bandwidth to/from this memory (bytes/s)
system.mem_ctrls.bw_total::cpu06.inst           37504                       # Total bandwidth to/from this memory (bytes/s)
system.mem_ctrls.bw_total::cpu06.data        51592857                       # Total bandwidth to/from this memory (bytes/s)
system.mem_ctrls.bw_total::cpu07.inst           12501                       # Total bandwidth to/from this memory (bytes/s)
system.mem_ctrls.bw_total::cpu07.data        54924453                       # Total bandwidth to/from this memory (bytes/s)
system.mem_ctrls.bw_total::cpu08.inst            6251                       # Total bandwidth to/from this memory (bytes/s)
system.mem_ctrls.bw_total::cpu08.data        55080719                       # Total bandwidth to/from this memory (bytes/s)
system.mem_ctrls.bw_total::cpu09.data        50811526                       # Total bandwidth to/from this memory (bytes/s)
system.mem_ctrls.bw_total::cpu10.data        51517849                       # Total bandwidth to/from this memory (bytes/s)
system.mem_ctrls.bw_total::cpu11.inst            6251                       # Total bandwidth to/from this memory (bytes/s)
system.mem_ctrls.bw_total::cpu11.data        50836528                       # Total bandwidth to/from this memory (bytes/s)
system.mem_ctrls.bw_total::cpu12.inst          118762                       # Total bandwidth to/from this memory (bytes/s)
system.mem_ctrls.bw_total::cpu12.data        53630568                       # Total bandwidth to/from this memory (bytes/s)
system.mem_ctrls.bw_total::cpu13.data        50367730                       # Total bandwidth to/from this memory (bytes/s)
system.mem_ctrls.bw_total::cpu14.inst           12501                       # Total bandwidth to/from this memory (bytes/s)
system.mem_ctrls.bw_total::cpu14.data        51661614                       # Total bandwidth to/from this memory (bytes/s)
system.mem_ctrls.bw_total::cpu15.inst           87509                       # Total bandwidth to/from this memory (bytes/s)
system.mem_ctrls.bw_total::cpu15.data        53655571                       # Total bandwidth to/from this memory (bytes/s)
system.mem_ctrls.bw_total::total           1443231100                       # Total bandwidth to/from this memory (bytes/s)
system.cpu00.branchPred.lookups                333002                       # Number of BP lookups
system.cpu00.branchPred.condPredicted          167570                       # Number of conditional branches predicted
system.cpu00.branchPred.condIncorrect            5333                       # Number of conditional branches incorrect
system.cpu00.branchPred.BTBLookups             233416                       # Number of BTB lookups
system.cpu00.branchPred.BTBHits                210854                       # Number of BTB hits
system.cpu00.branchPred.BTBCorrect                  0                       # Number of correct BTB predictions (this stat may not work properly.
system.cpu00.branchPred.BTBHitPct           90.333996                       # BTB Hit Percentage
system.cpu00.branchPred.usedRAS                 79754                       # Number of times the RAS was used to get a target.
system.cpu00.branchPred.RASInCorrect               84                       # Number of incorrect RAS predictions.
system.cpu00.branchPred.indirectLookups          1705                       # Number of indirect predictor lookups.
system.cpu00.branchPred.indirectHits              972                       # Number of indirect target hits.
system.cpu00.branchPred.indirectMisses            733                       # Number of indirect misses.
system.cpu00.branchPredindirectMispredicted          228                       # Number of mispredicted indirect branches.
system.cpu_voltage_domain.voltage                   1                       # Voltage in Volts
system.cpu_clk_domain.clock                      1161                       # Clock period in ticks
system.cpu00.dtb.fetch_hits                         0                       # ITB hits
system.cpu00.dtb.fetch_misses                       0                       # ITB misses
system.cpu00.dtb.fetch_acv                          0                       # ITB acv
system.cpu00.dtb.fetch_accesses                     0                       # ITB accesses
system.cpu00.dtb.read_hits                    1175048                       # DTB read hits
system.cpu00.dtb.read_misses                     7876                       # DTB read misses
system.cpu00.dtb.read_acv                           2                       # DTB read access violations
system.cpu00.dtb.read_accesses                1182924                       # DTB read accesses
system.cpu00.dtb.write_hits                    351878                       # DTB write hits
system.cpu00.dtb.write_misses                   58681                       # DTB write misses
system.cpu00.dtb.write_acv                          0                       # DTB write access violations
system.cpu00.dtb.write_accesses                410559                       # DTB write accesses
system.cpu00.dtb.data_hits                    1526926                       # DTB hits
system.cpu00.dtb.data_misses                    66557                       # DTB misses
system.cpu00.dtb.data_acv                           2                       # DTB access violations
system.cpu00.dtb.data_accesses                1593483                       # DTB accesses
system.cpu00.itb.fetch_hits                    767756                       # ITB hits
system.cpu00.itb.fetch_misses                     171                       # ITB misses
system.cpu00.itb.fetch_acv                          0                       # ITB acv
system.cpu00.itb.fetch_accesses                767927                       # ITB accesses
system.cpu00.itb.read_hits                          0                       # DTB read hits
system.cpu00.itb.read_misses                        0                       # DTB read misses
system.cpu00.itb.read_acv                           0                       # DTB read access violations
system.cpu00.itb.read_accesses                      0                       # DTB read accesses
system.cpu00.itb.write_hits                         0                       # DTB write hits
system.cpu00.itb.write_misses                       0                       # DTB write misses
system.cpu00.itb.write_acv                          0                       # DTB write access violations
system.cpu00.itb.write_accesses                     0                       # DTB write accesses
system.cpu00.itb.data_hits                          0                       # DTB hits
system.cpu00.itb.data_misses                        0                       # DTB misses
system.cpu00.itb.data_acv                           0                       # DTB access violations
system.cpu00.itb.data_accesses                      0                       # DTB accesses
system.cpu00.workload.num_syscalls               1713                       # Number of system calls
system.cpu00.numCycles                        8499149                       # number of cpu cycles simulated
system.cpu00.numWorkItemsStarted                    0                       # number of work items this cpu started
system.cpu00.numWorkItemsCompleted                  0                       # number of work items this cpu completed
system.cpu00.fetch.icacheStallCycles            85970                       # Number of cycles fetch is stalled on an Icache miss
system.cpu00.fetch.Insts                      7377275                       # Number of instructions fetch has processed
system.cpu00.fetch.Branches                    333002                       # Number of branches that fetch encountered
system.cpu00.fetch.predictedBranches           291580                       # Number of branches that fetch has predicted taken
system.cpu00.fetch.Cycles                     8169348                       # Number of cycles fetch has run and was not squashing or blocked
system.cpu00.fetch.SquashCycles                 48512                       # Number of cycles fetch has spent squashing
system.cpu00.fetch.MiscStallCycles                 99                       # Number of cycles fetch has spent waiting on interrupts, or bad addresses, or out of MSHRs
system.cpu00.fetch.PendingTrapStallCycles         6911                       # Number of stall cycles due to pending traps
system.cpu00.fetch.IcacheWaitRetryStallCycles           74                       # Number of stall cycles due to full MSHR
system.cpu00.fetch.CacheLines                  767756                       # Number of cache lines fetched
system.cpu00.fetch.IcacheSquashes                2496                       # Number of outstanding Icache misses that were squashed
system.cpu00.fetch.rateDist::samples          8286658                       # Number of instructions fetched each cycle (Total)
system.cpu00.fetch.rateDist::mean            0.890259                       # Number of instructions fetched each cycle (Total)
system.cpu00.fetch.rateDist::stdev           2.249120                       # Number of instructions fetched each cycle (Total)
system.cpu00.fetch.rateDist::underflows             0      0.00%      0.00% # Number of instructions fetched each cycle (Total)
system.cpu00.fetch.rateDist::0                6934234     83.68%     83.68% # Number of instructions fetched each cycle (Total)
system.cpu00.fetch.rateDist::1                  35681      0.43%     84.11% # Number of instructions fetched each cycle (Total)
system.cpu00.fetch.rateDist::2                 258634      3.12%     87.23% # Number of instructions fetched each cycle (Total)
system.cpu00.fetch.rateDist::3                  30203      0.36%     87.60% # Number of instructions fetched each cycle (Total)
system.cpu00.fetch.rateDist::4                 268737      3.24%     90.84% # Number of instructions fetched each cycle (Total)
system.cpu00.fetch.rateDist::5                  49614      0.60%     91.44% # Number of instructions fetched each cycle (Total)
system.cpu00.fetch.rateDist::6                  89252      1.08%     92.51% # Number of instructions fetched each cycle (Total)
system.cpu00.fetch.rateDist::7                  87237      1.05%     93.57% # Number of instructions fetched each cycle (Total)
system.cpu00.fetch.rateDist::8                 533066      6.43%    100.00% # Number of instructions fetched each cycle (Total)
system.cpu00.fetch.rateDist::overflows              0      0.00%    100.00% # Number of instructions fetched each cycle (Total)
system.cpu00.fetch.rateDist::min_value              0                       # Number of instructions fetched each cycle (Total)
system.cpu00.fetch.rateDist::max_value              8                       # Number of instructions fetched each cycle (Total)
system.cpu00.fetch.rateDist::total            8286658                       # Number of instructions fetched each cycle (Total)
system.cpu00.fetch.branchRate                0.039181                       # Number of branch fetches per cycle
system.cpu00.fetch.rate                      0.868002                       # Number of inst fetches per cycle
system.cpu00.decode.IdleCycles                 255416                       # Number of cycles decode is idle
system.cpu00.decode.BlockedCycles             7166704                       # Number of cycles decode is blocked
system.cpu00.decode.RunCycles                  334623                       # Number of cycles decode is running
system.cpu00.decode.UnblockCycles              507333                       # Number of cycles decode is unblocking
system.cpu00.decode.SquashCycles                22582                       # Number of cycles decode is squashing
system.cpu00.decode.BranchResolved              81719                       # Number of times decode resolved a branch
system.cpu00.decode.BranchMispred                1723                       # Number of times decode detected a branch misprediction
system.cpu00.decode.DecodedInsts              6494199                       # Number of instructions handled by decode
system.cpu00.decode.SquashedInsts                7145                       # Number of squashed instructions handled by decode
system.cpu00.rename.SquashCycles                22582                       # Number of cycles rename is squashing
system.cpu00.rename.IdleCycles                 378117                       # Number of cycles rename is idle
system.cpu00.rename.BlockCycles               3133692                       # Number of cycles rename is blocking
system.cpu00.rename.serializeStallCycles        92694                       # count of cycles rename stalled for serializing inst
system.cpu00.rename.RunCycles                  641294                       # Number of cycles rename is running
system.cpu00.rename.UnblockCycles             4018279                       # Number of cycles rename is unblocking
system.cpu00.rename.RenamedInsts              6327815                       # Number of instructions processed by rename
system.cpu00.rename.ROBFullEvents                2303                       # Number of times rename has blocked due to ROB full
system.cpu00.rename.IQFullEvents              2087176                       # Number of times rename has blocked due to IQ full
system.cpu00.rename.LQFullEvents              1641247                       # Number of times rename has blocked due to LQ full
system.cpu00.rename.SQFullEvents               254631                       # Number of times rename has blocked due to SQ full
system.cpu00.rename.RenamedOperands           5428154                       # Number of destination operands rename has renamed
system.cpu00.rename.RenameLookups             9151855                       # Number of register rename lookups that rename has made
system.cpu00.rename.int_rename_lookups        5133545                       # Number of integer rename lookups
system.cpu00.rename.fp_rename_lookups         4018058                       # Number of floating rename lookups
system.cpu00.rename.CommittedMaps             3931232                       # Number of HB maps that are committed
system.cpu00.rename.UndoneMaps                1496922                       # Number of HB maps that are undone due to squashing
system.cpu00.rename.serializingInsts             2286                       # count of serializing insts renamed
system.cpu00.rename.tempSerializingInsts         1945                       # count of temporary serializing insts renamed
system.cpu00.rename.skidInsts                 3386176                       # count of insts added to the skid buffer
system.cpu00.memDep0.insertedLoads            1198072                       # Number of loads inserted to the mem dependence unit.
system.cpu00.memDep0.insertedStores            532803                       # Number of stores inserted to the mem dependence unit.
system.cpu00.memDep0.conflictingLoads          370971                       # Number of conflicting loads.
system.cpu00.memDep0.conflictingStores         194436                       # Number of conflicting stores.
system.cpu00.iq.iqInstsAdded                  6223664                       # Number of instructions added to the IQ (excludes non-spec)
system.cpu00.iq.iqNonSpecInstsAdded              3191                       # Number of non-speculative instructions added to the IQ
system.cpu00.iq.iqInstsIssued                 5918831                       # Number of instructions issued
system.cpu00.iq.iqSquashedInstsIssued            6954                       # Number of squashed instructions issued
system.cpu00.iq.iqSquashedInstsExamined       1880818                       # Number of squashed instructions iterated over during squash; mainly for profiling
system.cpu00.iq.iqSquashedOperandsExamined       791505                       # Number of squashed operands that are examined and possibly removed from graph
system.cpu00.iq.iqSquashedNonSpecRemoved          488                       # Number of squashed non-spec instructions that were removed
system.cpu00.iq.issued_per_cycle::samples      8286658                       # Number of insts issued each cycle
system.cpu00.iq.issued_per_cycle::mean       0.714260                       # Number of insts issued each cycle
system.cpu00.iq.issued_per_cycle::stdev      1.207759                       # Number of insts issued each cycle
system.cpu00.iq.issued_per_cycle::underflows            0      0.00%      0.00% # Number of insts issued each cycle
system.cpu00.iq.issued_per_cycle::0           4817092     58.13%     58.13% # Number of insts issued each cycle
system.cpu00.iq.issued_per_cycle::1           2245353     27.10%     85.23% # Number of insts issued each cycle
system.cpu00.iq.issued_per_cycle::2            710342      8.57%     93.80% # Number of insts issued each cycle
system.cpu00.iq.issued_per_cycle::3            218033      2.63%     96.43% # Number of insts issued each cycle
system.cpu00.iq.issued_per_cycle::4            114448      1.38%     97.81% # Number of insts issued each cycle
system.cpu00.iq.issued_per_cycle::5             65351      0.79%     98.60% # Number of insts issued each cycle
system.cpu00.iq.issued_per_cycle::6             43591      0.53%     99.13% # Number of insts issued each cycle
system.cpu00.iq.issued_per_cycle::7             26982      0.33%     99.45% # Number of insts issued each cycle
system.cpu00.iq.issued_per_cycle::8             45466      0.55%    100.00% # Number of insts issued each cycle
system.cpu00.iq.issued_per_cycle::overflows            0      0.00%    100.00% # Number of insts issued each cycle
system.cpu00.iq.issued_per_cycle::min_value            0                       # Number of insts issued each cycle
system.cpu00.iq.issued_per_cycle::max_value            8                       # Number of insts issued each cycle
system.cpu00.iq.issued_per_cycle::total       8286658                       # Number of insts issued each cycle
system.cpu00.iq.fu_full::No_OpClass                 0      0.00%      0.00% # attempts to use FU when none available
system.cpu00.iq.fu_full::IntAlu                  4430      9.87%      9.87% # attempts to use FU when none available
system.cpu00.iq.fu_full::IntMult                    0      0.00%      9.87% # attempts to use FU when none available
system.cpu00.iq.fu_full::IntDiv                     0      0.00%      9.87% # attempts to use FU when none available
system.cpu00.iq.fu_full::FloatAdd                   0      0.00%      9.87% # attempts to use FU when none available
system.cpu00.iq.fu_full::FloatCmp                   0      0.00%      9.87% # attempts to use FU when none available
system.cpu00.iq.fu_full::FloatCvt                   0      0.00%      9.87% # attempts to use FU when none available
system.cpu00.iq.fu_full::FloatMult               8237     18.35%     28.22% # attempts to use FU when none available
system.cpu00.iq.fu_full::FloatDiv                   0      0.00%     28.22% # attempts to use FU when none available
system.cpu00.iq.fu_full::FloatSqrt                  0      0.00%     28.22% # attempts to use FU when none available
system.cpu00.iq.fu_full::SimdAdd                    0      0.00%     28.22% # attempts to use FU when none available
system.cpu00.iq.fu_full::SimdAddAcc                 0      0.00%     28.22% # attempts to use FU when none available
system.cpu00.iq.fu_full::SimdAlu                    0      0.00%     28.22% # attempts to use FU when none available
system.cpu00.iq.fu_full::SimdCmp                    0      0.00%     28.22% # attempts to use FU when none available
system.cpu00.iq.fu_full::SimdCvt                    0      0.00%     28.22% # attempts to use FU when none available
system.cpu00.iq.fu_full::SimdMisc                   0      0.00%     28.22% # attempts to use FU when none available
system.cpu00.iq.fu_full::SimdMult                   0      0.00%     28.22% # attempts to use FU when none available
system.cpu00.iq.fu_full::SimdMultAcc                0      0.00%     28.22% # attempts to use FU when none available
system.cpu00.iq.fu_full::SimdShift                  0      0.00%     28.22% # attempts to use FU when none available
system.cpu00.iq.fu_full::SimdShiftAcc               0      0.00%     28.22% # attempts to use FU when none available
system.cpu00.iq.fu_full::SimdSqrt                   0      0.00%     28.22% # attempts to use FU when none available
system.cpu00.iq.fu_full::SimdFloatAdd               0      0.00%     28.22% # attempts to use FU when none available
system.cpu00.iq.fu_full::SimdFloatAlu               0      0.00%     28.22% # attempts to use FU when none available
system.cpu00.iq.fu_full::SimdFloatCmp               0      0.00%     28.22% # attempts to use FU when none available
system.cpu00.iq.fu_full::SimdFloatCvt               0      0.00%     28.22% # attempts to use FU when none available
system.cpu00.iq.fu_full::SimdFloatDiv               0      0.00%     28.22% # attempts to use FU when none available
system.cpu00.iq.fu_full::SimdFloatMisc              0      0.00%     28.22% # attempts to use FU when none available
system.cpu00.iq.fu_full::SimdFloatMult              0      0.00%     28.22% # attempts to use FU when none available
system.cpu00.iq.fu_full::SimdFloatMultAcc            0      0.00%     28.22% # attempts to use FU when none available
system.cpu00.iq.fu_full::SimdFloatSqrt              0      0.00%     28.22% # attempts to use FU when none available
system.cpu00.iq.fu_full::MemRead                25252     56.25%     84.47% # attempts to use FU when none available
system.cpu00.iq.fu_full::MemWrite                6971     15.53%    100.00% # attempts to use FU when none available
system.cpu00.iq.fu_full::IprAccess                  0      0.00%    100.00% # attempts to use FU when none available
system.cpu00.iq.fu_full::InstPrefetch               0      0.00%    100.00% # attempts to use FU when none available
system.cpu00.iq.FU_type_0::No_OpClass               0      0.00%      0.00% # Type of FU issued
system.cpu00.iq.FU_type_0::IntAlu             1752145     29.60%     29.60% # Type of FU issued
system.cpu00.iq.FU_type_0::IntMult                251      0.00%     29.61% # Type of FU issued
system.cpu00.iq.FU_type_0::IntDiv                   0      0.00%     29.61% # Type of FU issued
system.cpu00.iq.FU_type_0::FloatAdd           1713569     28.95%     58.56% # Type of FU issued
system.cpu00.iq.FU_type_0::FloatCmp                11      0.00%     58.56% # Type of FU issued
system.cpu00.iq.FU_type_0::FloatCvt                 0      0.00%     58.56% # Type of FU issued
system.cpu00.iq.FU_type_0::FloatMult           852373     14.40%     72.96% # Type of FU issued
system.cpu00.iq.FU_type_0::FloatDiv                 0      0.00%     72.96% # Type of FU issued
system.cpu00.iq.FU_type_0::FloatSqrt                0      0.00%     72.96% # Type of FU issued
system.cpu00.iq.FU_type_0::SimdAdd                  0      0.00%     72.96% # Type of FU issued
system.cpu00.iq.FU_type_0::SimdAddAcc               0      0.00%     72.96% # Type of FU issued
system.cpu00.iq.FU_type_0::SimdAlu                  0      0.00%     72.96% # Type of FU issued
system.cpu00.iq.FU_type_0::SimdCmp                  0      0.00%     72.96% # Type of FU issued
system.cpu00.iq.FU_type_0::SimdCvt                  0      0.00%     72.96% # Type of FU issued
system.cpu00.iq.FU_type_0::SimdMisc                 0      0.00%     72.96% # Type of FU issued
system.cpu00.iq.FU_type_0::SimdMult                 0      0.00%     72.96% # Type of FU issued
system.cpu00.iq.FU_type_0::SimdMultAcc              0      0.00%     72.96% # Type of FU issued
system.cpu00.iq.FU_type_0::SimdShift                0      0.00%     72.96% # Type of FU issued
system.cpu00.iq.FU_type_0::SimdShiftAcc             0      0.00%     72.96% # Type of FU issued
system.cpu00.iq.FU_type_0::SimdSqrt                 0      0.00%     72.96% # Type of FU issued
system.cpu00.iq.FU_type_0::SimdFloatAdd             0      0.00%     72.96% # Type of FU issued
system.cpu00.iq.FU_type_0::SimdFloatAlu             0      0.00%     72.96% # Type of FU issued
system.cpu00.iq.FU_type_0::SimdFloatCmp             0      0.00%     72.96% # Type of FU issued
system.cpu00.iq.FU_type_0::SimdFloatCvt             0      0.00%     72.96% # Type of FU issued
system.cpu00.iq.FU_type_0::SimdFloatDiv             0      0.00%     72.96% # Type of FU issued
system.cpu00.iq.FU_type_0::SimdFloatMisc            0      0.00%     72.96% # Type of FU issued
system.cpu00.iq.FU_type_0::SimdFloatMult            0      0.00%     72.96% # Type of FU issued
system.cpu00.iq.FU_type_0::SimdFloatMultAcc            0      0.00%     72.96% # Type of FU issued
system.cpu00.iq.FU_type_0::SimdFloatSqrt            0      0.00%     72.96% # Type of FU issued
system.cpu00.iq.FU_type_0::MemRead            1187639     20.07%     93.02% # Type of FU issued
system.cpu00.iq.FU_type_0::MemWrite            412843      6.98%    100.00% # Type of FU issued
system.cpu00.iq.FU_type_0::IprAccess                0      0.00%    100.00% # Type of FU issued
system.cpu00.iq.FU_type_0::InstPrefetch             0      0.00%    100.00% # Type of FU issued
system.cpu00.iq.FU_type_0::total              5918831                       # Type of FU issued
system.cpu00.iq.rate                         0.696403                       # Inst issue rate
system.cpu00.iq.fu_busy_cnt                     44890                       # FU busy when requested
system.cpu00.iq.fu_busy_rate                 0.007584                       # FU busy rate (busy events/executed inst)
system.cpu00.iq.int_inst_queue_reads         14444405                       # Number of integer instruction queue reads
system.cpu00.iq.int_inst_queue_writes         5244123                       # Number of integer instruction queue writes
system.cpu00.iq.int_inst_queue_wakeup_accesses      2864599                       # Number of integer instruction queue wakeup accesses
system.cpu00.iq.fp_inst_queue_reads           5731759                       # Number of floating instruction queue reads
system.cpu00.iq.fp_inst_queue_writes          2864048                       # Number of floating instruction queue writes
system.cpu00.iq.fp_inst_queue_wakeup_accesses      2861633                       # Number of floating instruction queue wakeup accesses
system.cpu00.iq.int_alu_accesses              3093685                       # Number of integer alu accesses
system.cpu00.iq.fp_alu_accesses               2870036                       # Number of floating point alu accesses
system.cpu00.iew.lsq.thread0.forwLoads           9501                       # Number of loads that had data forwarded from stores
system.cpu00.iew.lsq.thread0.invAddrLoads            0                       # Number of loads ignored due to an invalid address
system.cpu00.iew.lsq.thread0.squashedLoads       595249                       # Number of loads squashed
system.cpu00.iew.lsq.thread0.ignoredResponses           44                       # Number of memory responses ignored because the instruction is squashed
system.cpu00.iew.lsq.thread0.memOrderViolation          507                       # Number of memory ordering violations
system.cpu00.iew.lsq.thread0.squashedStores       320675                       # Number of stores squashed
system.cpu00.iew.lsq.thread0.invAddrSwpfs            0                       # Number of software prefetches ignored due to an invalid address
system.cpu00.iew.lsq.thread0.blockedLoads            0                       # Number of blocked loads due to partial load-store forwarding
system.cpu00.iew.lsq.thread0.rescheduledLoads          261                       # Number of loads that were rescheduled
system.cpu00.iew.lsq.thread0.cacheBlocked       100596                       # Number of times an access to memory failed due to the cache being blocked
system.cpu00.iew.iewIdleCycles                      0                       # Number of cycles IEW is idle
system.cpu00.iew.iewSquashCycles                22582                       # Number of cycles IEW is squashing
system.cpu00.iew.iewBlockCycles                986314                       # Number of cycles IEW is blocking
system.cpu00.iew.iewUnblockCycles              828686                       # Number of cycles IEW is unblocking
system.cpu00.iew.iewDispatchedInsts           6293154                       # Number of instructions dispatched to IQ
system.cpu00.iew.iewDispSquashedInsts            1165                       # Number of squashed instructions skipped by dispatch
system.cpu00.iew.iewDispLoadInsts             1198072                       # Number of dispatched load instructions
system.cpu00.iew.iewDispStoreInsts             532803                       # Number of dispatched store instructions
system.cpu00.iew.iewDispNonSpecInsts             1867                       # Number of dispatched non-speculative instructions
system.cpu00.iew.iewIQFullEvents                44099                       # Number of times the IQ has become full, causing a stall
system.cpu00.iew.iewLSQFullEvents              678988                       # Number of times the LSQ has become full, causing a stall
system.cpu00.iew.memOrderViolationEvents          507                       # Number of memory order violations
system.cpu00.iew.predictedTakenIncorrect         1495                       # Number of branches that were predicted taken incorrectly
system.cpu00.iew.predictedNotTakenIncorrect         2934                       # Number of branches that were predicted not taken incorrectly
system.cpu00.iew.branchMispredicts               4429                       # Number of branch mispredicts detected at execute
system.cpu00.iew.iewExecutedInsts             5909628                       # Number of executed instructions
system.cpu00.iew.iewExecLoadInsts             1182941                       # Number of load instructions executed
system.cpu00.iew.iewExecSquashedInsts            9203                       # Number of squashed instructions skipped in execute
system.cpu00.iew.exec_swp                           0                       # number of swp insts executed
system.cpu00.iew.exec_nop                       66299                       # number of nop insts executed
system.cpu00.iew.exec_refs                    1593526                       # number of memory reference insts executed
system.cpu00.iew.exec_branches                 287848                       # Number of branches executed
system.cpu00.iew.exec_stores                   410585                       # Number of stores executed
system.cpu00.iew.exec_rate                   0.695320                       # Inst execution rate
system.cpu00.iew.wb_sent                      5794999                       # cumulative count of insts sent to commit
system.cpu00.iew.wb_count                     5726232                       # cumulative count of insts written-back
system.cpu00.iew.wb_producers                 4522284                       # num instructions producing a value
system.cpu00.iew.wb_consumers                 5916725                       # num instructions consuming a value
system.cpu00.iew.wb_rate                     0.673742                       # insts written-back per cycle
system.cpu00.iew.wb_fanout                   0.764322                       # average fanout of values written-back
system.cpu00.commit.commitSquashedInsts       1877856                       # The number of squashed insts skipped by commit
system.cpu00.commit.commitNonSpecStalls          2703                       # The number of times commit has been forced to stall to communicate backwards
system.cpu00.commit.branchMispredicts            3659                       # The number of times a branch was mispredicted
system.cpu00.commit.committed_per_cycle::samples      8038685                       # Number of insts commited each cycle
system.cpu00.commit.committed_per_cycle::mean     0.547899                       # Number of insts commited each cycle
system.cpu00.commit.committed_per_cycle::stdev     1.300773                       # Number of insts commited each cycle
system.cpu00.commit.committed_per_cycle::underflows            0      0.00%      0.00% # Number of insts commited each cycle
system.cpu00.commit.committed_per_cycle::0      5816368     72.35%     72.35% # Number of insts commited each cycle
system.cpu00.commit.committed_per_cycle::1      1332892     16.58%     88.94% # Number of insts commited each cycle
system.cpu00.commit.committed_per_cycle::2       495117      6.16%     95.09% # Number of insts commited each cycle
system.cpu00.commit.committed_per_cycle::3       140367      1.75%     96.84% # Number of insts commited each cycle
system.cpu00.commit.committed_per_cycle::4        20582      0.26%     97.10% # Number of insts commited each cycle
system.cpu00.commit.committed_per_cycle::5        80826      1.01%     98.10% # Number of insts commited each cycle
system.cpu00.commit.committed_per_cycle::6        12213      0.15%     98.25% # Number of insts commited each cycle
system.cpu00.commit.committed_per_cycle::7        22138      0.28%     98.53% # Number of insts commited each cycle
system.cpu00.commit.committed_per_cycle::8       118182      1.47%    100.00% # Number of insts commited each cycle
system.cpu00.commit.committed_per_cycle::overflows            0      0.00%    100.00% # Number of insts commited each cycle
system.cpu00.commit.committed_per_cycle::min_value            0                       # Number of insts commited each cycle
system.cpu00.commit.committed_per_cycle::max_value            8                       # Number of insts commited each cycle
system.cpu00.commit.committed_per_cycle::total      8038685                       # Number of insts commited each cycle
system.cpu00.commit.committedInsts            4404385                       # Number of instructions committed
system.cpu00.commit.committedOps              4404385                       # Number of ops (including micro ops) committed
system.cpu00.commit.swp_count                       0                       # Number of s/w prefetches committed
system.cpu00.commit.refs                       814951                       # Number of memory references committed
system.cpu00.commit.loads                      602823                       # Number of loads committed
system.cpu00.commit.membars                      1140                       # Number of memory barriers committed
system.cpu00.commit.branches                   242103                       # Number of branches committed
system.cpu00.commit.fp_insts                  2860888                       # Number of committed floating point instructions.
system.cpu00.commit.int_insts                 1784951                       # Number of committed integer instructions.
system.cpu00.commit.function_calls              75183                       # Number of function calls committed.
system.cpu00.commit.op_class_0::No_OpClass        58349      1.32%      1.32% # Class of committed instruction
system.cpu00.commit.op_class_0::IntAlu         964372     21.90%     23.22% # Class of committed instruction
system.cpu00.commit.op_class_0::IntMult           244      0.01%     23.23% # Class of committed instruction
system.cpu00.commit.op_class_0::IntDiv              0      0.00%     23.23% # Class of committed instruction
system.cpu00.commit.op_class_0::FloatAdd      1713053     38.89%     62.12% # Class of committed instruction
system.cpu00.commit.op_class_0::FloatCmp           10      0.00%     62.12% # Class of committed instruction
system.cpu00.commit.op_class_0::FloatCvt            0      0.00%     62.12% # Class of committed instruction
system.cpu00.commit.op_class_0::FloatMult       852265     19.35%     81.47% # Class of committed instruction
system.cpu00.commit.op_class_0::FloatDiv            0      0.00%     81.47% # Class of committed instruction
system.cpu00.commit.op_class_0::FloatSqrt            0      0.00%     81.47% # Class of committed instruction
system.cpu00.commit.op_class_0::SimdAdd             0      0.00%     81.47% # Class of committed instruction
system.cpu00.commit.op_class_0::SimdAddAcc            0      0.00%     81.47% # Class of committed instruction
system.cpu00.commit.op_class_0::SimdAlu             0      0.00%     81.47% # Class of committed instruction
system.cpu00.commit.op_class_0::SimdCmp             0      0.00%     81.47% # Class of committed instruction
system.cpu00.commit.op_class_0::SimdCvt             0      0.00%     81.47% # Class of committed instruction
system.cpu00.commit.op_class_0::SimdMisc            0      0.00%     81.47% # Class of committed instruction
system.cpu00.commit.op_class_0::SimdMult            0      0.00%     81.47% # Class of committed instruction
system.cpu00.commit.op_class_0::SimdMultAcc            0      0.00%     81.47% # Class of committed instruction
system.cpu00.commit.op_class_0::SimdShift            0      0.00%     81.47% # Class of committed instruction
system.cpu00.commit.op_class_0::SimdShiftAcc            0      0.00%     81.47% # Class of committed instruction
system.cpu00.commit.op_class_0::SimdSqrt            0      0.00%     81.47% # Class of committed instruction
system.cpu00.commit.op_class_0::SimdFloatAdd            0      0.00%     81.47% # Class of committed instruction
system.cpu00.commit.op_class_0::SimdFloatAlu            0      0.00%     81.47% # Class of committed instruction
system.cpu00.commit.op_class_0::SimdFloatCmp            0      0.00%     81.47% # Class of committed instruction
system.cpu00.commit.op_class_0::SimdFloatCvt            0      0.00%     81.47% # Class of committed instruction
system.cpu00.commit.op_class_0::SimdFloatDiv            0      0.00%     81.47% # Class of committed instruction
system.cpu00.commit.op_class_0::SimdFloatMisc            0      0.00%     81.47% # Class of committed instruction
system.cpu00.commit.op_class_0::SimdFloatMult            0      0.00%     81.47% # Class of committed instruction
system.cpu00.commit.op_class_0::SimdFloatMultAcc            0      0.00%     81.47% # Class of committed instruction
system.cpu00.commit.op_class_0::SimdFloatSqrt            0      0.00%     81.47% # Class of committed instruction
system.cpu00.commit.op_class_0::MemRead        603963     13.71%     95.18% # Class of committed instruction
system.cpu00.commit.op_class_0::MemWrite       212129      4.82%    100.00% # Class of committed instruction
system.cpu00.commit.op_class_0::IprAccess            0      0.00%    100.00% # Class of committed instruction
system.cpu00.commit.op_class_0::InstPrefetch            0      0.00%    100.00% # Class of committed instruction
system.cpu00.commit.op_class_0::total         4404385                       # Class of committed instruction
system.cpu00.commit.bw_lim_events              118182                       # number cycles where commit BW limit reached
system.cpu00.rob.rob_reads                   13962491                       # The number of ROB reads
system.cpu00.rob.rob_writes                  12812562                       # The number of ROB writes
system.cpu00.timesIdled                          1472                       # Number of times that the entire CPU went into an idle state and unscheduled itself
system.cpu00.idleCycles                        212491                       # Total number of cycles that the CPU has spent unscheduled due to idling
system.cpu00.quiesceCycles                     319919                       # Total number of cycles that CPU has spent quiesced or waiting for an interrupt
system.cpu00.committedInsts                   4346036                       # Number of Instructions Simulated
system.cpu00.committedOps                     4346036                       # Number of Ops (including micro ops) Simulated
system.cpu00.cpi                             1.955609                       # CPI: Cycles Per Instruction
system.cpu00.cpi_total                       1.955609                       # CPI: Total CPI of All Threads
system.cpu00.ipc                             0.511350                       # IPC: Instructions Per Cycle
system.cpu00.ipc_total                       0.511350                       # IPC: Total IPC of All Threads
system.cpu00.int_regfile_reads                4536921                       # number of integer regfile reads
system.cpu00.int_regfile_writes               2258995                       # number of integer regfile writes
system.cpu00.fp_regfile_reads                 4016756                       # number of floating regfile reads
system.cpu00.fp_regfile_writes                2836036                       # number of floating regfile writes
system.cpu00.misc_regfile_reads                  3014                       # number of misc regfile reads
system.cpu00.misc_regfile_writes                 2493                       # number of misc regfile writes
system.cpu00.dcache.tags.replacements           69174                       # number of replacements
system.cpu00.dcache.tags.tagsinuse          63.788247                       # Cycle average of tags in use
system.cpu00.dcache.tags.total_refs           1133264                       # Total number of references to valid blocks.
system.cpu00.dcache.tags.sampled_refs           69238                       # Sample count of references to valid blocks.
system.cpu00.dcache.tags.avg_refs           16.367659                       # Average number of references to valid blocks.
system.cpu00.dcache.tags.warmup_cycle        85990626                       # Cycle when the warmup percentage was hit.
system.cpu00.dcache.tags.occ_blocks::cpu00.data    63.788247                       # Average occupied blocks per requestor
system.cpu00.dcache.tags.occ_percent::cpu00.data     0.996691                       # Average percentage of cache occupancy
system.cpu00.dcache.tags.occ_percent::total     0.996691                       # Average percentage of cache occupancy
system.cpu00.dcache.tags.occ_task_id_blocks::1024           64                       # Occupied blocks per task id
system.cpu00.dcache.tags.age_task_id_blocks_1024::0           47                       # Occupied blocks per task id
system.cpu00.dcache.tags.age_task_id_blocks_1024::1           17                       # Occupied blocks per task id
system.cpu00.dcache.tags.occ_task_id_percent::1024            1                       # Percentage of cache occupancy per task id
system.cpu00.dcache.tags.tag_accesses         2644515                       # Number of tag accesses
system.cpu00.dcache.tags.data_accesses        2644515                       # Number of data accesses
system.cpu00.dcache.ReadReq_hits::cpu00.data       996363                       # number of ReadReq hits
system.cpu00.dcache.ReadReq_hits::total        996363                       # number of ReadReq hits
system.cpu00.dcache.WriteReq_hits::cpu00.data       134607                       # number of WriteReq hits
system.cpu00.dcache.WriteReq_hits::total       134607                       # number of WriteReq hits
system.cpu00.dcache.LoadLockedReq_hits::cpu00.data          970                       # number of LoadLockedReq hits
system.cpu00.dcache.LoadLockedReq_hits::total          970                       # number of LoadLockedReq hits
system.cpu00.dcache.StoreCondReq_hits::cpu00.data         1232                       # number of StoreCondReq hits
system.cpu00.dcache.StoreCondReq_hits::total         1232                       # number of StoreCondReq hits
system.cpu00.dcache.demand_hits::cpu00.data      1130970                       # number of demand (read+write) hits
system.cpu00.dcache.demand_hits::total        1130970                       # number of demand (read+write) hits
system.cpu00.dcache.overall_hits::cpu00.data      1130970                       # number of overall hits
system.cpu00.dcache.overall_hits::total       1130970                       # number of overall hits
system.cpu00.dcache.ReadReq_misses::cpu00.data        77759                       # number of ReadReq misses
system.cpu00.dcache.ReadReq_misses::total        77759                       # number of ReadReq misses
system.cpu00.dcache.WriteReq_misses::cpu00.data        76276                       # number of WriteReq misses
system.cpu00.dcache.WriteReq_misses::total        76276                       # number of WriteReq misses
system.cpu00.dcache.LoadLockedReq_misses::cpu00.data          325                       # number of LoadLockedReq misses
system.cpu00.dcache.LoadLockedReq_misses::total          325                       # number of LoadLockedReq misses
system.cpu00.dcache.StoreCondReq_misses::cpu00.data           13                       # number of StoreCondReq misses
system.cpu00.dcache.StoreCondReq_misses::total           13                       # number of StoreCondReq misses
system.cpu00.dcache.demand_misses::cpu00.data       154035                       # number of demand (read+write) misses
system.cpu00.dcache.demand_misses::total       154035                       # number of demand (read+write) misses
system.cpu00.dcache.overall_misses::cpu00.data       154035                       # number of overall misses
system.cpu00.dcache.overall_misses::total       154035                       # number of overall misses
system.cpu00.dcache.ReadReq_miss_latency::cpu00.data   6766822323                       # number of ReadReq miss cycles
system.cpu00.dcache.ReadReq_miss_latency::total   6766822323                       # number of ReadReq miss cycles
system.cpu00.dcache.WriteReq_miss_latency::cpu00.data  10776960701                       # number of WriteReq miss cycles
system.cpu00.dcache.WriteReq_miss_latency::total  10776960701                       # number of WriteReq miss cycles
system.cpu00.dcache.LoadLockedReq_miss_latency::cpu00.data      3571236                       # number of LoadLockedReq miss cycles
system.cpu00.dcache.LoadLockedReq_miss_latency::total      3571236                       # number of LoadLockedReq miss cycles
system.cpu00.dcache.StoreCondReq_miss_latency::cpu00.data       101007                       # number of StoreCondReq miss cycles
system.cpu00.dcache.StoreCondReq_miss_latency::total       101007                       # number of StoreCondReq miss cycles
system.cpu00.dcache.demand_miss_latency::cpu00.data  17543783024                       # number of demand (read+write) miss cycles
system.cpu00.dcache.demand_miss_latency::total  17543783024                       # number of demand (read+write) miss cycles
system.cpu00.dcache.overall_miss_latency::cpu00.data  17543783024                       # number of overall miss cycles
system.cpu00.dcache.overall_miss_latency::total  17543783024                       # number of overall miss cycles
system.cpu00.dcache.ReadReq_accesses::cpu00.data      1074122                       # number of ReadReq accesses(hits+misses)
system.cpu00.dcache.ReadReq_accesses::total      1074122                       # number of ReadReq accesses(hits+misses)
system.cpu00.dcache.WriteReq_accesses::cpu00.data       210883                       # number of WriteReq accesses(hits+misses)
system.cpu00.dcache.WriteReq_accesses::total       210883                       # number of WriteReq accesses(hits+misses)
system.cpu00.dcache.LoadLockedReq_accesses::cpu00.data         1295                       # number of LoadLockedReq accesses(hits+misses)
system.cpu00.dcache.LoadLockedReq_accesses::total         1295                       # number of LoadLockedReq accesses(hits+misses)
system.cpu00.dcache.StoreCondReq_accesses::cpu00.data         1245                       # number of StoreCondReq accesses(hits+misses)
system.cpu00.dcache.StoreCondReq_accesses::total         1245                       # number of StoreCondReq accesses(hits+misses)
system.cpu00.dcache.demand_accesses::cpu00.data      1285005                       # number of demand (read+write) accesses
system.cpu00.dcache.demand_accesses::total      1285005                       # number of demand (read+write) accesses
system.cpu00.dcache.overall_accesses::cpu00.data      1285005                       # number of overall (read+write) accesses
system.cpu00.dcache.overall_accesses::total      1285005                       # number of overall (read+write) accesses
system.cpu00.dcache.ReadReq_miss_rate::cpu00.data     0.072393                       # miss rate for ReadReq accesses
system.cpu00.dcache.ReadReq_miss_rate::total     0.072393                       # miss rate for ReadReq accesses
system.cpu00.dcache.WriteReq_miss_rate::cpu00.data     0.361698                       # miss rate for WriteReq accesses
system.cpu00.dcache.WriteReq_miss_rate::total     0.361698                       # miss rate for WriteReq accesses
system.cpu00.dcache.LoadLockedReq_miss_rate::cpu00.data     0.250965                       # miss rate for LoadLockedReq accesses
system.cpu00.dcache.LoadLockedReq_miss_rate::total     0.250965                       # miss rate for LoadLockedReq accesses
system.cpu00.dcache.StoreCondReq_miss_rate::cpu00.data     0.010442                       # miss rate for StoreCondReq accesses
system.cpu00.dcache.StoreCondReq_miss_rate::total     0.010442                       # miss rate for StoreCondReq accesses
system.cpu00.dcache.demand_miss_rate::cpu00.data     0.119871                       # miss rate for demand accesses
system.cpu00.dcache.demand_miss_rate::total     0.119871                       # miss rate for demand accesses
system.cpu00.dcache.overall_miss_rate::cpu00.data     0.119871                       # miss rate for overall accesses
system.cpu00.dcache.overall_miss_rate::total     0.119871                       # miss rate for overall accesses
system.cpu00.dcache.ReadReq_avg_miss_latency::cpu00.data 87023.011137                       # average ReadReq miss latency
system.cpu00.dcache.ReadReq_avg_miss_latency::total 87023.011137                       # average ReadReq miss latency
system.cpu00.dcache.WriteReq_avg_miss_latency::cpu00.data 141289.012284                       # average WriteReq miss latency
system.cpu00.dcache.WriteReq_avg_miss_latency::total 141289.012284                       # average WriteReq miss latency
system.cpu00.dcache.LoadLockedReq_avg_miss_latency::cpu00.data 10988.418462                       # average LoadLockedReq miss latency
system.cpu00.dcache.LoadLockedReq_avg_miss_latency::total 10988.418462                       # average LoadLockedReq miss latency
system.cpu00.dcache.StoreCondReq_avg_miss_latency::cpu00.data  7769.769231                       # average StoreCondReq miss latency
system.cpu00.dcache.StoreCondReq_avg_miss_latency::total  7769.769231                       # average StoreCondReq miss latency
system.cpu00.dcache.demand_avg_miss_latency::cpu00.data 113894.783809                       # average overall miss latency
system.cpu00.dcache.demand_avg_miss_latency::total 113894.783809                       # average overall miss latency
system.cpu00.dcache.overall_avg_miss_latency::cpu00.data 113894.783809                       # average overall miss latency
system.cpu00.dcache.overall_avg_miss_latency::total 113894.783809                       # average overall miss latency
system.cpu00.dcache.blocked_cycles::no_mshrs       352042                       # number of cycles access was blocked
system.cpu00.dcache.blocked_cycles::no_targets          121                       # number of cycles access was blocked
system.cpu00.dcache.blocked::no_mshrs           11059                       # number of cycles access was blocked
system.cpu00.dcache.blocked::no_targets            11                       # number of cycles access was blocked
system.cpu00.dcache.avg_blocked_cycles::no_mshrs    31.833077                       # average number of cycles each access was blocked
system.cpu00.dcache.avg_blocked_cycles::no_targets           11                       # average number of cycles each access was blocked
system.cpu00.dcache.fast_writes                     0                       # number of fast writes performed
system.cpu00.dcache.cache_copies                    0                       # number of cache copies performed
system.cpu00.dcache.writebacks::writebacks        61114                       # number of writebacks
system.cpu00.dcache.writebacks::total           61114                       # number of writebacks
system.cpu00.dcache.ReadReq_mshr_hits::cpu00.data        47629                       # number of ReadReq MSHR hits
system.cpu00.dcache.ReadReq_mshr_hits::total        47629                       # number of ReadReq MSHR hits
system.cpu00.dcache.WriteReq_mshr_hits::cpu00.data        37107                       # number of WriteReq MSHR hits
system.cpu00.dcache.WriteReq_mshr_hits::total        37107                       # number of WriteReq MSHR hits
system.cpu00.dcache.LoadLockedReq_mshr_hits::cpu00.data          140                       # number of LoadLockedReq MSHR hits
system.cpu00.dcache.LoadLockedReq_mshr_hits::total          140                       # number of LoadLockedReq MSHR hits
system.cpu00.dcache.demand_mshr_hits::cpu00.data        84736                       # number of demand (read+write) MSHR hits
system.cpu00.dcache.demand_mshr_hits::total        84736                       # number of demand (read+write) MSHR hits
system.cpu00.dcache.overall_mshr_hits::cpu00.data        84736                       # number of overall MSHR hits
system.cpu00.dcache.overall_mshr_hits::total        84736                       # number of overall MSHR hits
system.cpu00.dcache.ReadReq_mshr_misses::cpu00.data        30130                       # number of ReadReq MSHR misses
system.cpu00.dcache.ReadReq_mshr_misses::total        30130                       # number of ReadReq MSHR misses
system.cpu00.dcache.WriteReq_mshr_misses::cpu00.data        39169                       # number of WriteReq MSHR misses
system.cpu00.dcache.WriteReq_mshr_misses::total        39169                       # number of WriteReq MSHR misses
system.cpu00.dcache.LoadLockedReq_mshr_misses::cpu00.data          185                       # number of LoadLockedReq MSHR misses
system.cpu00.dcache.LoadLockedReq_mshr_misses::total          185                       # number of LoadLockedReq MSHR misses
system.cpu00.dcache.StoreCondReq_mshr_misses::cpu00.data           13                       # number of StoreCondReq MSHR misses
system.cpu00.dcache.StoreCondReq_mshr_misses::total           13                       # number of StoreCondReq MSHR misses
system.cpu00.dcache.demand_mshr_misses::cpu00.data        69299                       # number of demand (read+write) MSHR misses
system.cpu00.dcache.demand_mshr_misses::total        69299                       # number of demand (read+write) MSHR misses
system.cpu00.dcache.overall_mshr_misses::cpu00.data        69299                       # number of overall MSHR misses
system.cpu00.dcache.overall_mshr_misses::total        69299                       # number of overall MSHR misses
system.cpu00.dcache.ReadReq_mshr_miss_latency::cpu00.data   2630273364                       # number of ReadReq MSHR miss cycles
system.cpu00.dcache.ReadReq_mshr_miss_latency::total   2630273364                       # number of ReadReq MSHR miss cycles
system.cpu00.dcache.WriteReq_mshr_miss_latency::cpu00.data   4806368916                       # number of WriteReq MSHR miss cycles
system.cpu00.dcache.WriteReq_mshr_miss_latency::total   4806368916                       # number of WriteReq MSHR miss cycles
system.cpu00.dcache.LoadLockedReq_mshr_miss_latency::cpu00.data      1635849                       # number of LoadLockedReq MSHR miss cycles
system.cpu00.dcache.LoadLockedReq_mshr_miss_latency::total      1635849                       # number of LoadLockedReq MSHR miss cycles
system.cpu00.dcache.StoreCondReq_mshr_miss_latency::cpu00.data        85914                       # number of StoreCondReq MSHR miss cycles
system.cpu00.dcache.StoreCondReq_mshr_miss_latency::total        85914                       # number of StoreCondReq MSHR miss cycles
system.cpu00.dcache.demand_mshr_miss_latency::cpu00.data   7436642280                       # number of demand (read+write) MSHR miss cycles
system.cpu00.dcache.demand_mshr_miss_latency::total   7436642280                       # number of demand (read+write) MSHR miss cycles
system.cpu00.dcache.overall_mshr_miss_latency::cpu00.data   7436642280                       # number of overall MSHR miss cycles
system.cpu00.dcache.overall_mshr_miss_latency::total   7436642280                       # number of overall MSHR miss cycles
system.cpu00.dcache.ReadReq_mshr_miss_rate::cpu00.data     0.028051                       # mshr miss rate for ReadReq accesses
system.cpu00.dcache.ReadReq_mshr_miss_rate::total     0.028051                       # mshr miss rate for ReadReq accesses
system.cpu00.dcache.WriteReq_mshr_miss_rate::cpu00.data     0.185738                       # mshr miss rate for WriteReq accesses
system.cpu00.dcache.WriteReq_mshr_miss_rate::total     0.185738                       # mshr miss rate for WriteReq accesses
system.cpu00.dcache.LoadLockedReq_mshr_miss_rate::cpu00.data     0.142857                       # mshr miss rate for LoadLockedReq accesses
system.cpu00.dcache.LoadLockedReq_mshr_miss_rate::total     0.142857                       # mshr miss rate for LoadLockedReq accesses
system.cpu00.dcache.StoreCondReq_mshr_miss_rate::cpu00.data     0.010442                       # mshr miss rate for StoreCondReq accesses
system.cpu00.dcache.StoreCondReq_mshr_miss_rate::total     0.010442                       # mshr miss rate for StoreCondReq accesses
system.cpu00.dcache.demand_mshr_miss_rate::cpu00.data     0.053929                       # mshr miss rate for demand accesses
system.cpu00.dcache.demand_mshr_miss_rate::total     0.053929                       # mshr miss rate for demand accesses
system.cpu00.dcache.overall_mshr_miss_rate::cpu00.data     0.053929                       # mshr miss rate for overall accesses
system.cpu00.dcache.overall_mshr_miss_rate::total     0.053929                       # mshr miss rate for overall accesses
system.cpu00.dcache.ReadReq_avg_mshr_miss_latency::cpu00.data 87297.489678                       # average ReadReq mshr miss latency
system.cpu00.dcache.ReadReq_avg_mshr_miss_latency::total 87297.489678                       # average ReadReq mshr miss latency
system.cpu00.dcache.WriteReq_avg_mshr_miss_latency::cpu00.data 122708.491818                       # average WriteReq mshr miss latency
system.cpu00.dcache.WriteReq_avg_mshr_miss_latency::total 122708.491818                       # average WriteReq mshr miss latency
system.cpu00.dcache.LoadLockedReq_avg_mshr_miss_latency::cpu00.data  8842.427027                       # average LoadLockedReq mshr miss latency
system.cpu00.dcache.LoadLockedReq_avg_mshr_miss_latency::total  8842.427027                       # average LoadLockedReq mshr miss latency
system.cpu00.dcache.StoreCondReq_avg_mshr_miss_latency::cpu00.data  6608.769231                       # average StoreCondReq mshr miss latency
system.cpu00.dcache.StoreCondReq_avg_mshr_miss_latency::total  6608.769231                       # average StoreCondReq mshr miss latency
system.cpu00.dcache.demand_avg_mshr_miss_latency::cpu00.data 107312.403931                       # average overall mshr miss latency
system.cpu00.dcache.demand_avg_mshr_miss_latency::total 107312.403931                       # average overall mshr miss latency
system.cpu00.dcache.overall_avg_mshr_miss_latency::cpu00.data 107312.403931                       # average overall mshr miss latency
system.cpu00.dcache.overall_avg_mshr_miss_latency::total 107312.403931                       # average overall mshr miss latency
system.cpu00.dcache.no_allocate_misses              0                       # Number of misses that were no-allocate
system.cpu00.icache.tags.replacements            7174                       # number of replacements
system.cpu00.icache.tags.tagsinuse         507.075634                       # Cycle average of tags in use
system.cpu00.icache.tags.total_refs            759008                       # Total number of references to valid blocks.
system.cpu00.icache.tags.sampled_refs            7686                       # Sample count of references to valid blocks.
system.cpu00.icache.tags.avg_refs           98.752017                       # Average number of references to valid blocks.
system.cpu00.icache.tags.warmup_cycle       523314945                       # Cycle when the warmup percentage was hit.
system.cpu00.icache.tags.occ_blocks::cpu00.inst   507.075634                       # Average occupied blocks per requestor
system.cpu00.icache.tags.occ_percent::cpu00.inst     0.990382                       # Average percentage of cache occupancy
system.cpu00.icache.tags.occ_percent::total     0.990382                       # Average percentage of cache occupancy
system.cpu00.icache.tags.occ_task_id_blocks::1024          512                       # Occupied blocks per task id
[...]
system.tol2bus.pkt_count_system.cpu06.dcache.mem_side::system.l2.cpu_side       163911                       # Packet count per connected master and slave (bytes)
system.tol2bus.pkt_count_system.cpu07.icache.mem_side::system.l2.cpu_side         1006                       # Packet count per connected master and slave (bytes)
system.tol2bus.pkt_count_system.cpu07.dcache.mem_side::system.l2.cpu_side       157629                       # Packet count per connected master and slave (bytes)
system.tol2bus.pkt_count_system.cpu08.icache.mem_side::system.l2.cpu_side          850                       # Packet count per connected master and slave (bytes)
system.tol2bus.pkt_count_system.cpu08.dcache.mem_side::system.l2.cpu_side       187506                       # Packet count per connected master and slave (bytes)
system.tol2bus.pkt_count_system.cpu09.icache.mem_side::system.l2.cpu_side         1001                       # Packet count per connected master and slave (bytes)
system.tol2bus.pkt_count_system.cpu09.dcache.mem_side::system.l2.cpu_side       157277                       # Packet count per connected master and slave (bytes)
system.tol2bus.pkt_count_system.cpu10.icache.mem_side::system.l2.cpu_side          851                       # Packet count per connected master and slave (bytes)
system.tol2bus.pkt_count_system.cpu10.dcache.mem_side::system.l2.cpu_side       162551                       # Packet count per connected master and slave (bytes)
system.tol2bus.pkt_count_system.cpu11.icache.mem_side::system.l2.cpu_side          999                       # Packet count per connected master and slave (bytes)
system.tol2bus.pkt_count_system.cpu11.dcache.mem_side::system.l2.cpu_side       156755                       # Packet count per connected master and slave (bytes)
system.tol2bus.pkt_count_system.cpu12.icache.mem_side::system.l2.cpu_side         1094                       # Packet count per connected master and slave (bytes)
system.tol2bus.pkt_count_system.cpu12.dcache.mem_side::system.l2.cpu_side       174493                       # Packet count per connected master and slave (bytes)
system.tol2bus.pkt_count_system.cpu13.icache.mem_side::system.l2.cpu_side          851                       # Packet count per connected master and slave (bytes)
system.tol2bus.pkt_count_system.cpu13.dcache.mem_side::system.l2.cpu_side       156725                       # Packet count per connected master and slave (bytes)
system.tol2bus.pkt_count_system.cpu14.icache.mem_side::system.l2.cpu_side         1007                       # Packet count per connected master and slave (bytes)
system.tol2bus.pkt_count_system.cpu14.dcache.mem_side::system.l2.cpu_side       164788                       # Packet count per connected master and slave (bytes)
system.tol2bus.pkt_count_system.cpu15.icache.mem_side::system.l2.cpu_side         1007                       # Packet count per connected master and slave (bytes)
system.tol2bus.pkt_count_system.cpu15.dcache.mem_side::system.l2.cpu_side       163386                       # Packet count per connected master and slave (bytes)
system.tol2bus.pkt_count::total               2693848                       # Packet count per connected master and slave (bytes)
system.tol2bus.pkt_size_system.cpu00.icache.mem_side::system.l2.cpu_side       951040                       # Cumulative packet size per connected master and slave (bytes)
system.tol2bus.pkt_size_system.cpu00.dcache.mem_side::system.l2.cpu_side      8324160                       # Cumulative packet size per connected master and slave (bytes)
system.tol2bus.pkt_size_system.cpu01.icache.mem_side::system.l2.cpu_side        37312                       # Cumulative packet size per connected master and slave (bytes)
system.tol2bus.pkt_size_system.cpu01.dcache.mem_side::system.l2.cpu_side      6342272                       # Cumulative packet size per connected master and slave (bytes)
system.tol2bus.pkt_size_system.cpu02.icache.mem_side::system.l2.cpu_side        29888                       # Cumulative packet size per connected master and slave (bytes)
system.tol2bus.pkt_size_system.cpu02.dcache.mem_side::system.l2.cpu_side      6690496                       # Cumulative packet size per connected master and slave (bytes)
system.tol2bus.pkt_size_system.cpu03.icache.mem_side::system.l2.cpu_side        34816                       # Cumulative packet size per connected master and slave (bytes)
system.tol2bus.pkt_size_system.cpu03.dcache.mem_side::system.l2.cpu_side      6460992                       # Cumulative packet size per connected master and slave (bytes)
system.tol2bus.pkt_size_system.cpu04.icache.mem_side::system.l2.cpu_side        28736                       # Cumulative packet size per connected master and slave (bytes)
system.tol2bus.pkt_size_system.cpu04.dcache.mem_side::system.l2.cpu_side      7178816                       # Cumulative packet size per connected master and slave (bytes)
system.tol2bus.pkt_size_system.cpu05.icache.mem_side::system.l2.cpu_side        34752                       # Cumulative packet size per connected master and slave (bytes)
system.tol2bus.pkt_size_system.cpu05.dcache.mem_side::system.l2.cpu_side      6462016                       # Cumulative packet size per connected master and slave (bytes)
system.tol2bus.pkt_size_system.cpu06.icache.mem_side::system.l2.cpu_side        28736                       # Cumulative packet size per connected master and slave (bytes)
system.tol2bus.pkt_size_system.cpu06.dcache.mem_side::system.l2.cpu_side      6769856                       # Cumulative packet size per connected master and slave (bytes)
system.tol2bus.pkt_size_system.cpu07.icache.mem_side::system.l2.cpu_side        34944                       # Cumulative packet size per connected master and slave (bytes)
system.tol2bus.pkt_size_system.cpu07.dcache.mem_side::system.l2.cpu_side      6460864                       # Cumulative packet size per connected master and slave (bytes)
system.tol2bus.pkt_size_system.cpu08.icache.mem_side::system.l2.cpu_side        28672                       # Cumulative packet size per connected master and slave (bytes)
system.tol2bus.pkt_size_system.cpu08.dcache.mem_side::system.l2.cpu_side      7738368                       # Cumulative packet size per connected master and slave (bytes)
system.tol2bus.pkt_size_system.cpu09.icache.mem_side::system.l2.cpu_side        34752                       # Cumulative packet size per connected master and slave (bytes)
system.tol2bus.pkt_size_system.cpu09.dcache.mem_side::system.l2.cpu_side      6506944                       # Cumulative packet size per connected master and slave (bytes)
system.tol2bus.pkt_size_system.cpu10.icache.mem_side::system.l2.cpu_side        28736                       # Cumulative packet size per connected master and slave (bytes)
system.tol2bus.pkt_size_system.cpu10.dcache.mem_side::system.l2.cpu_side      6701632                       # Cumulative packet size per connected master and slave (bytes)
system.tol2bus.pkt_size_system.cpu11.icache.mem_side::system.l2.cpu_side        34688                       # Cumulative packet size per connected master and slave (bytes)
system.tol2bus.pkt_size_system.cpu11.dcache.mem_side::system.l2.cpu_side      6471104                       # Cumulative packet size per connected master and slave (bytes)
system.tol2bus.pkt_size_system.cpu12.icache.mem_side::system.l2.cpu_side        38400                       # Cumulative packet size per connected master and slave (bytes)
system.tol2bus.pkt_size_system.cpu12.dcache.mem_side::system.l2.cpu_side      7177856                       # Cumulative packet size per connected master and slave (bytes)
system.tol2bus.pkt_size_system.cpu13.icache.mem_side::system.l2.cpu_side        28736                       # Cumulative packet size per connected master and slave (bytes)
system.tol2bus.pkt_size_system.cpu13.dcache.mem_side::system.l2.cpu_side      6481024                       # Cumulative packet size per connected master and slave (bytes)
system.tol2bus.pkt_size_system.cpu14.icache.mem_side::system.l2.cpu_side        34944                       # Cumulative packet size per connected master and slave (bytes)
system.tol2bus.pkt_size_system.cpu14.dcache.mem_side::system.l2.cpu_side      6755200                       # Cumulative packet size per connected master and slave (bytes)
system.tol2bus.pkt_size_system.cpu15.icache.mem_side::system.l2.cpu_side        34944                       # Cumulative packet size per connected master and slave (bytes)
system.tol2bus.pkt_size_system.cpu15.dcache.mem_side::system.l2.cpu_side      6754752                       # Cumulative packet size per connected master and slave (bytes)
system.tol2bus.pkt_size::total              110720448                       # Cumulative packet size per connected master and slave (bytes)
system.tol2bus.snoops                          134121                       # Total snoops (count)
system.tol2bus.snoop_fanout::samples          1034589                       # Request fanout histogram
system.tol2bus.snoop_fanout::mean            0.081512                       # Request fanout histogram
system.tol2bus.snoop_fanout::stdev           0.849679                       # Request fanout histogram
system.tol2bus.snoop_fanout::underflows             0      0.00%      0.00% # Request fanout histogram
system.tol2bus.snoop_fanout::0                1014378     98.05%     98.05% # Request fanout histogram
system.tol2bus.snoop_fanout::1                  10156      0.98%     99.03% # Request fanout histogram
system.tol2bus.snoop_fanout::2                   1639      0.16%     99.19% # Request fanout histogram
system.tol2bus.snoop_fanout::3                   1078      0.10%     99.29% # Request fanout histogram
system.tol2bus.snoop_fanout::4                    831      0.08%     99.37% # Request fanout histogram
system.tol2bus.snoop_fanout::5                    807      0.08%     99.45% # Request fanout histogram
system.tol2bus.snoop_fanout::6                    678      0.07%     99.51% # Request fanout histogram
system.tol2bus.snoop_fanout::7                    592      0.06%     99.57% # Request fanout histogram
system.tol2bus.snoop_fanout::8                    571      0.06%     99.63% # Request fanout histogram
system.tol2bus.snoop_fanout::9                    543      0.05%     99.68% # Request fanout histogram
system.tol2bus.snoop_fanout::10                   490      0.05%     99.73% # Request fanout histogram
system.tol2bus.snoop_fanout::11                   491      0.05%     99.77% # Request fanout histogram
system.tol2bus.snoop_fanout::12                   475      0.05%     99.82% # Request fanout histogram
system.tol2bus.snoop_fanout::13                   481      0.05%     99.87% # Request fanout histogram
system.tol2bus.snoop_fanout::14                   479      0.05%     99.91% # Request fanout histogram
system.tol2bus.snoop_fanout::15                   723      0.07%     99.98% # Request fanout histogram
system.tol2bus.snoop_fanout::16                   177      0.02%    100.00% # Request fanout histogram
system.tol2bus.snoop_fanout::17                     0      0.00%    100.00% # Request fanout histogram
system.tol2bus.snoop_fanout::18                     0      0.00%    100.00% # Request fanout histogram
system.tol2bus.snoop_fanout::19                     0      0.00%    100.00% # Request fanout histogram
system.tol2bus.snoop_fanout::20                     0      0.00%    100.00% # Request fanout histogram
system.tol2bus.snoop_fanout::21                     0      0.00%    100.00% # Request fanout histogram
system.tol2bus.snoop_fanout::22                     0      0.00%    100.00% # Request fanout histogram
system.tol2bus.snoop_fanout::23                     0      0.00%    100.00% # Request fanout histogram
system.tol2bus.snoop_fanout::24                     0      0.00%    100.00% # Request fanout histogram
system.tol2bus.snoop_fanout::25                     0      0.00%    100.00% # Request fanout histogram
system.tol2bus.snoop_fanout::26                     0      0.00%    100.00% # Request fanout histogram
system.tol2bus.snoop_fanout::27                     0      0.00%    100.00% # Request fanout histogram
system.tol2bus.snoop_fanout::28                     0      0.00%    100.00% # Request fanout histogram
system.tol2bus.snoop_fanout::29                     0      0.00%    100.00% # Request fanout histogram
system.tol2bus.snoop_fanout::30                     0      0.00%    100.00% # Request fanout histogram
system.tol2bus.snoop_fanout::31                     0      0.00%    100.00% # Request fanout histogram
system.tol2bus.snoop_fanout::32                     0      0.00%    100.00% # Request fanout histogram
system.tol2bus.snoop_fanout::overflows              0      0.00%    100.00% # Request fanout histogram
system.tol2bus.snoop_fanout::min_value              0                       # Request fanout histogram
system.tol2bus.snoop_fanout::max_value             16                       # Request fanout histogram
system.tol2bus.snoop_fanout::total            1034589                       # Request fanout histogram
system.tol2bus.reqLayer0.occupancy         4031388925                       # Layer occupancy (ticks)
system.tol2bus.reqLayer0.utilization             39.4                       # Layer utilization (%)
system.tol2bus.respLayer0.occupancy          27141084                       # Layer occupancy (ticks)
system.tol2bus.respLayer0.utilization             0.3                       # Layer utilization (%)
system.tol2bus.respLayer1.occupancy         243907324                       # Layer occupancy (ticks)
system.tol2bus.respLayer1.utilization             2.4                       # Layer utilization (%)
system.tol2bus.respLayer2.occupancy           1707087                       # Layer occupancy (ticks)
system.tol2bus.respLayer2.utilization             0.0                       # Layer utilization (%)
system.tol2bus.respLayer3.occupancy         182805986                       # Layer occupancy (ticks)
system.tol2bus.respLayer3.utilization             1.8                       # Layer utilization (%)
system.tol2bus.respLayer4.occupancy           1487146                       # Layer occupancy (ticks)
system.tol2bus.respLayer4.utilization             0.0                       # Layer utilization (%)
system.tol2bus.respLayer5.occupancy         190368202                       # Layer occupancy (ticks)
system.tol2bus.respLayer5.utilization             1.9                       # Layer utilization (%)
system.tol2bus.respLayer6.occupancy           1625425                       # Layer occupancy (ticks)
system.tol2bus.respLayer6.utilization             0.0                       # Layer utilization (%)
system.tol2bus.respLayer7.occupancy         183547764                       # Layer occupancy (ticks)
system.tol2bus.respLayer7.utilization             1.8                       # Layer utilization (%)
system.tol2bus.respLayer8.occupancy           1417730                       # Layer occupancy (ticks)
system.tol2bus.respLayer8.utilization             0.0                       # Layer utilization (%)
system.tol2bus.respLayer9.occupancy         204983384                       # Layer occupancy (ticks)
system.tol2bus.respLayer9.utilization             2.0                       # Layer utilization (%)
system.tol2bus.respLayer10.occupancy          1624155                       # Layer occupancy (ticks)
system.tol2bus.respLayer10.utilization            0.0                       # Layer utilization (%)
system.tol2bus.respLayer11.occupancy        183787153                       # Layer occupancy (ticks)
system.tol2bus.respLayer11.utilization            1.8                       # Layer utilization (%)
system.tol2bus.respLayer12.occupancy          1426765                       # Layer occupancy (ticks)
system.tol2bus.respLayer12.utilization            0.0                       # Layer utilization (%)
system.tol2bus.respLayer13.occupancy        192829644                       # Layer occupancy (ticks)
system.tol2bus.respLayer13.utilization            1.9                       # Layer utilization (%)
system.tol2bus.respLayer14.occupancy          1622990                       # Layer occupancy (ticks)
system.tol2bus.respLayer14.utilization            0.0                       # Layer utilization (%)
system.tol2bus.respLayer15.occupancy        185230296                       # Layer occupancy (ticks)
system.tol2bus.respLayer15.utilization            1.8                       # Layer utilization (%)
system.tol2bus.respLayer16.occupancy          1424044                       # Layer occupancy (ticks)
system.tol2bus.respLayer16.utilization            0.0                       # Layer utilization (%)
system.tol2bus.respLayer17.occupancy        220329964                       # Layer occupancy (ticks)
system.tol2bus.respLayer17.utilization            2.2                       # Layer utilization (%)
system.tol2bus.respLayer18.occupancy          1620441                       # Layer occupancy (ticks)
system.tol2bus.respLayer18.utilization            0.0                       # Layer utilization (%)
system.tol2bus.respLayer19.occupancy        184713802                       # Layer occupancy (ticks)
system.tol2bus.respLayer19.utilization            1.8                       # Layer utilization (%)
system.tol2bus.respLayer20.occupancy          1425576                       # Layer occupancy (ticks)
system.tol2bus.respLayer20.utilization            0.0                       # Layer utilization (%)
system.tol2bus.respLayer21.occupancy        191335387                       # Layer occupancy (ticks)
system.tol2bus.respLayer21.utilization            1.9                       # Layer utilization (%)
system.tol2bus.respLayer22.occupancy          1615950                       # Layer occupancy (ticks)
system.tol2bus.respLayer22.utilization            0.0                       # Layer utilization (%)
system.tol2bus.respLayer23.occupancy        184273786                       # Layer occupancy (ticks)
system.tol2bus.respLayer23.utilization            1.8                       # Layer utilization (%)
system.tol2bus.respLayer24.occupancy          1741526                       # Layer occupancy (ticks)
system.tol2bus.respLayer24.utilization            0.0                       # Layer utilization (%)
system.tol2bus.respLayer25.occupancy        205278921                       # Layer occupancy (ticks)
system.tol2bus.respLayer25.utilization            2.0                       # Layer utilization (%)
system.tol2bus.respLayer26.occupancy          1419416                       # Layer occupancy (ticks)
system.tol2bus.respLayer26.utilization            0.0                       # Layer utilization (%)
system.tol2bus.respLayer27.occupancy        184083007                       # Layer occupancy (ticks)
system.tol2bus.respLayer27.utilization            1.8                       # Layer utilization (%)
system.tol2bus.respLayer28.occupancy          1634774                       # Layer occupancy (ticks)
system.tol2bus.respLayer28.utilization            0.0                       # Layer utilization (%)
system.tol2bus.respLayer29.occupancy        194043788                       # Layer occupancy (ticks)
system.tol2bus.respLayer29.utilization            1.9                       # Layer utilization (%)
system.tol2bus.respLayer30.occupancy          1615728                       # Layer occupancy (ticks)
system.tol2bus.respLayer30.utilization            0.0                       # Layer utilization (%)
system.tol2bus.respLayer31.occupancy        191924552                       # Layer occupancy (ticks)
system.tol2bus.respLayer31.utilization            1.9                       # Layer utilization (%)

---------- End Simulation Statistics   ----------
