
---------- Begin Simulation Statistics ----------
sim_seconds                                  0.001307                       # Number of seconds simulated
sim_ticks                                  1306651760                       # Number of ticks simulated
final_tick                                 1306651760                       # Number of ticks from beginning of simulation (restored from checkpoints and never reset)
sim_freq                                 1000000000000                       # Frequency of simulated ticks
host_inst_rate                                 232705                       # Simulator instruction rate (inst/s)
host_op_rate                                   232704                       # Simulator op (including micro ops) rate (op/s)
host_tick_rate                              118509038                       # Simulator tick rate (ticks/s)
host_mem_usage                                 694956                       # Number of bytes of host memory used
host_seconds                                    11.03                       # Real time elapsed on the host
sim_insts                                     2565739                       # Number of instructions simulated
sim_ops                                       2565739                       # Number of ops (including micro ops) simulated
system.voltage_domain.voltage                       1                       # Voltage in Volts
system.clk_domain.clock                          1000                       # Clock period in ticks
system.mem_ctrls.bytes_read::cpu00.inst        122752                       # Number of bytes read from this memory
system.mem_ctrls.bytes_read::cpu00.data        378240                       # Number of bytes read from this memory
system.mem_ctrls.bytes_read::cpu01.inst         14784                       # Number of bytes read from this memory
system.mem_ctrls.bytes_read::cpu01.data          5888                       # Number of bytes read from this memory
system.mem_ctrls.bytes_read::cpu02.inst           960                       # Number of bytes read from this memory
system.mem_ctrls.bytes_read::cpu02.data          5824                       # Number of bytes read from this memory
system.mem_ctrls.bytes_read::cpu03.inst           768                       # Number of bytes read from this memory
system.mem_ctrls.bytes_read::cpu03.data          4672                       # Number of bytes read from this memory
system.mem_ctrls.bytes_read::cpu04.inst           128                       # Number of bytes read from this memory
system.mem_ctrls.bytes_read::cpu04.data          5568                       # Number of bytes read from this memory
system.mem_ctrls.bytes_read::cpu05.inst           128                       # Number of bytes read from this memory
system.mem_ctrls.bytes_read::cpu05.data          5120                       # Number of bytes read from this memory
system.mem_ctrls.bytes_read::cpu06.inst           512                       # Number of bytes read from this memory
system.mem_ctrls.bytes_read::cpu06.data          6720                       # Number of bytes read from this memory
system.mem_ctrls.bytes_read::cpu07.inst           896                       # Number of bytes read from this memory
system.mem_ctrls.bytes_read::cpu07.data          5440                       # Number of bytes read from this memory
system.mem_ctrls.bytes_read::cpu08.inst           192                       # Number of bytes read from this memory
system.mem_ctrls.bytes_read::cpu08.data          5504                       # Number of bytes read from this memory
system.mem_ctrls.bytes_read::cpu09.inst          1088                       # Number of bytes read from this memory
system.mem_ctrls.bytes_read::cpu09.data          5440                       # Number of bytes read from this memory
system.mem_ctrls.bytes_read::cpu10.inst          1984                       # Number of bytes read from this memory
system.mem_ctrls.bytes_read::cpu10.data          6592                       # Number of bytes read from this memory
system.mem_ctrls.bytes_read::cpu11.inst          1408                       # Number of bytes read from this memory
system.mem_ctrls.bytes_read::cpu11.data          6208                       # Number of bytes read from this memory
system.mem_ctrls.bytes_read::cpu12.inst          2112                       # Number of bytes read from this memory
system.mem_ctrls.bytes_read::cpu12.data          6528                       # Number of bytes read from this memory
system.mem_ctrls.bytes_read::cpu13.inst          3968                       # Number of bytes read from this memory
system.mem_ctrls.bytes_read::cpu13.data          5504                       # Number of bytes read from this memory
system.mem_ctrls.bytes_read::cpu14.inst           512                       # Number of bytes read from this memory
system.mem_ctrls.bytes_read::cpu14.data          5504                       # Number of bytes read from this memory
system.mem_ctrls.bytes_read::cpu15.inst           832                       # Number of bytes read from this memory
system.mem_ctrls.bytes_read::cpu15.data          6336                       # Number of bytes read from this memory
system.mem_ctrls.bytes_read::total             618112                       # Number of bytes read from this memory
system.mem_ctrls.bytes_inst_read::cpu00.inst       122752                       # Number of instructions bytes read from this memory
system.mem_ctrls.bytes_inst_read::cpu01.inst        14784                       # Number of instructions bytes read from this memory
system.mem_ctrls.bytes_inst_read::cpu02.inst          960                       # Number of instructions bytes read from this memory
system.mem_ctrls.bytes_inst_read::cpu03.inst          768                       # Number of instructions bytes read from this memory
system.mem_ctrls.bytes_inst_read::cpu04.inst          128                       # Number of instructions bytes read from this memory
system.mem_ctrls.bytes_inst_read::cpu05.inst          128                       # Number of instructions bytes read from this memory
system.mem_ctrls.bytes_inst_read::cpu06.inst          512                       # Number of instructions bytes read from this memory
system.mem_ctrls.bytes_inst_read::cpu07.inst          896                       # Number of instructions bytes read from this memory
system.mem_ctrls.bytes_inst_read::cpu08.inst          192                       # Number of instructions bytes read from this memory
system.mem_ctrls.bytes_inst_read::cpu09.inst         1088                       # Number of instructions bytes read from this memory
system.mem_ctrls.bytes_inst_read::cpu10.inst         1984                       # Number of instructions bytes read from this memory
system.mem_ctrls.bytes_inst_read::cpu11.inst         1408                       # Number of instructions bytes read from this memory
system.mem_ctrls.bytes_inst_read::cpu12.inst         2112                       # Number of instructions bytes read from this memory
system.mem_ctrls.bytes_inst_read::cpu13.inst         3968                       # Number of instructions bytes read from this memory
system.mem_ctrls.bytes_inst_read::cpu14.inst          512                       # Number of instructions bytes read from this memory
system.mem_ctrls.bytes_inst_read::cpu15.inst          832                       # Number of instructions bytes read from this memory
system.mem_ctrls.bytes_inst_read::total        153024                       # Number of instructions bytes read from this memory
system.mem_ctrls.bytes_written::writebacks        70208                       # Number of bytes written to this memory
system.mem_ctrls.bytes_written::total           70208                       # Number of bytes written to this memory
system.mem_ctrls.num_reads::cpu00.inst           1918                       # Number of read requests responded to by this memory
system.mem_ctrls.num_reads::cpu00.data           5910                       # Number of read requests responded to by this memory
system.mem_ctrls.num_reads::cpu01.inst            231                       # Number of read requests responded to by this memory
system.mem_ctrls.num_reads::cpu01.data             92                       # Number of read requests responded to by this memory
system.mem_ctrls.num_reads::cpu02.inst             15                       # Number of read requests responded to by this memory
system.mem_ctrls.num_reads::cpu02.data             91                       # Number of read requests responded to by this memory
system.mem_ctrls.num_reads::cpu03.inst             12                       # Number of read requests responded to by this memory
system.mem_ctrls.num_reads::cpu03.data             73                       # Number of read requests responded to by this memory
system.mem_ctrls.num_reads::cpu04.inst              2                       # Number of read requests responded to by this memory
system.mem_ctrls.num_reads::cpu04.data             87                       # Number of read requests responded to by this memory
system.mem_ctrls.num_reads::cpu05.inst              2                       # Number of read requests responded to by this memory
system.mem_ctrls.num_reads::cpu05.data             80                       # Number of read requests responded to by this memory
system.mem_ctrls.num_reads::cpu06.inst              8                       # Number of read requests responded to by this memory
system.mem_ctrls.num_reads::cpu06.data            105                       # Number of read requests responded to by this memory
system.mem_ctrls.num_reads::cpu07.inst             14                       # Number of read requests responded to by this memory
system.mem_ctrls.num_reads::cpu07.data             85                       # Number of read requests responded to by this memory
system.mem_ctrls.num_reads::cpu08.inst              3                       # Number of read requests responded to by this memory
system.mem_ctrls.num_reads::cpu08.data             86                       # Number of read requests responded to by this memory
system.mem_ctrls.num_reads::cpu09.inst             17                       # Number of read requests responded to by this memory
system.mem_ctrls.num_reads::cpu09.data             85                       # Number of read requests responded to by this memory
system.mem_ctrls.num_reads::cpu10.inst             31                       # Number of read requests responded to by this memory
system.mem_ctrls.num_reads::cpu10.data            103                       # Number of read requests responded to by this memory
system.mem_ctrls.num_reads::cpu11.inst             22                       # Number of read requests responded to by this memory
system.mem_ctrls.num_reads::cpu11.data             97                       # Number of read requests responded to by this memory
system.mem_ctrls.num_reads::cpu12.inst             33                       # Number of read requests responded to by this memory
system.mem_ctrls.num_reads::cpu12.data            102                       # Number of read requests responded to by this memory
system.mem_ctrls.num_reads::cpu13.inst             62                       # Number of read requests responded to by this memory
system.mem_ctrls.num_reads::cpu13.data             86                       # Number of read requests responded to by this memory
system.mem_ctrls.num_reads::cpu14.inst              8                       # Number of read requests responded to by this memory
system.mem_ctrls.num_reads::cpu14.data             86                       # Number of read requests responded to by this memory
system.mem_ctrls.num_reads::cpu15.inst             13                       # Number of read requests responded to by this memory
system.mem_ctrls.num_reads::cpu15.data             99                       # Number of read requests responded to by this memory
system.mem_ctrls.num_reads::total                9658                       # Number of read requests responded to by this memory
system.mem_ctrls.num_writes::writebacks          1097                       # Number of write requests responded to by this memory
system.mem_ctrls.num_writes::total               1097                       # Number of write requests responded to by this memory
system.mem_ctrls.bw_read::cpu00.inst         93943929                       # Total read bandwidth from this memory (bytes/s)
system.mem_ctrls.bw_read::cpu00.data        289472690                       # Total read bandwidth from this memory (bytes/s)
system.mem_ctrls.bw_read::cpu01.inst         11314415                       # Total read bandwidth from this memory (bytes/s)
system.mem_ctrls.bw_read::cpu01.data          4506174                       # Total read bandwidth from this memory (bytes/s)
system.mem_ctrls.bw_read::cpu02.inst           734702                       # Total read bandwidth from this memory (bytes/s)
system.mem_ctrls.bw_read::cpu02.data          4457194                       # Total read bandwidth from this memory (bytes/s)
system.mem_ctrls.bw_read::cpu03.inst           587762                       # Total read bandwidth from this memory (bytes/s)
system.mem_ctrls.bw_read::cpu03.data          3575551                       # Total read bandwidth from this memory (bytes/s)
system.mem_ctrls.bw_read::cpu04.inst            97960                       # Total read bandwidth from this memory (bytes/s)
system.mem_ctrls.bw_read::cpu04.data          4261273                       # Total read bandwidth from this memory (bytes/s)
system.mem_ctrls.bw_read::cpu05.inst            97960                       # Total read bandwidth from this memory (bytes/s)
system.mem_ctrls.bw_read::cpu05.data          3918412                       # Total read bandwidth from this memory (bytes/s)
system.mem_ctrls.bw_read::cpu06.inst           391841                       # Total read bandwidth from this memory (bytes/s)
system.mem_ctrls.bw_read::cpu06.data          5142916                       # Total read bandwidth from this memory (bytes/s)
system.mem_ctrls.bw_read::cpu07.inst           685722                       # Total read bandwidth from this memory (bytes/s)
system.mem_ctrls.bw_read::cpu07.data          4163313                       # Total read bandwidth from this memory (bytes/s)
system.mem_ctrls.bw_read::cpu08.inst           146940                       # Total read bandwidth from this memory (bytes/s)
system.mem_ctrls.bw_read::cpu08.data          4212293                       # Total read bandwidth from this memory (bytes/s)
system.mem_ctrls.bw_read::cpu09.inst           832663                       # Total read bandwidth from this memory (bytes/s)
system.mem_ctrls.bw_read::cpu09.data          4163313                       # Total read bandwidth from this memory (bytes/s)
system.mem_ctrls.bw_read::cpu10.inst          1518385                       # Total read bandwidth from this memory (bytes/s)
system.mem_ctrls.bw_read::cpu10.data          5044956                       # Total read bandwidth from this memory (bytes/s)
system.mem_ctrls.bw_read::cpu11.inst          1077563                       # Total read bandwidth from this memory (bytes/s)
system.mem_ctrls.bw_read::cpu11.data          4751075                       # Total read bandwidth from this memory (bytes/s)
system.mem_ctrls.bw_read::cpu12.inst          1616345                       # Total read bandwidth from this memory (bytes/s)
system.mem_ctrls.bw_read::cpu12.data          4995975                       # Total read bandwidth from this memory (bytes/s)
system.mem_ctrls.bw_read::cpu13.inst          3036769                       # Total read bandwidth from this memory (bytes/s)
system.mem_ctrls.bw_read::cpu13.data          4212293                       # Total read bandwidth from this memory (bytes/s)
system.mem_ctrls.bw_read::cpu14.inst           391841                       # Total read bandwidth from this memory (bytes/s)
system.mem_ctrls.bw_read::cpu14.data          4212293                       # Total read bandwidth from this memory (bytes/s)
system.mem_ctrls.bw_read::cpu15.inst           636742                       # Total read bandwidth from this memory (bytes/s)
system.mem_ctrls.bw_read::cpu15.data          4849035                       # Total read bandwidth from this memory (bytes/s)
system.mem_ctrls.bw_read::total             473050295                       # Total read bandwidth from this memory (bytes/s)
system.mem_ctrls.bw_inst_read::cpu00.inst     93943929                       # Instruction read bandwidth from this memory (bytes/s)
system.mem_ctrls.bw_inst_read::cpu01.inst     11314415                       # Instruction read bandwidth from this memory (bytes/s)
system.mem_ctrls.bw_inst_read::cpu02.inst       734702                       # Instruction read bandwidth from this memory (bytes/s)
system.mem_ctrls.bw_inst_read::cpu03.inst       587762                       # Instruction read bandwidth from this memory (bytes/s)
system.mem_ctrls.bw_inst_read::cpu04.inst        97960                       # Instruction read bandwidth from this memory (bytes/s)
system.mem_ctrls.bw_inst_read::cpu05.inst        97960                       # Instruction read bandwidth from this memory (bytes/s)
system.mem_ctrls.bw_inst_read::cpu06.inst       391841                       # Instruction read bandwidth from this memory (bytes/s)
system.mem_ctrls.bw_inst_read::cpu07.inst       685722                       # Instruction read bandwidth from this memory (bytes/s)
system.mem_ctrls.bw_inst_read::cpu08.inst       146940                       # Instruction read bandwidth from this memory (bytes/s)
system.mem_ctrls.bw_inst_read::cpu09.inst       832663                       # Instruction read bandwidth from this memory (bytes/s)
system.mem_ctrls.bw_inst_read::cpu10.inst      1518385                       # Instruction read bandwidth from this memory (bytes/s)
system.mem_ctrls.bw_inst_read::cpu11.inst      1077563                       # Instruction read bandwidth from this memory (bytes/s)
system.mem_ctrls.bw_inst_read::cpu12.inst      1616345                       # Instruction read bandwidth from this memory (bytes/s)
system.mem_ctrls.bw_inst_read::cpu13.inst      3036769                       # Instruction read bandwidth from this memory (bytes/s)
system.mem_ctrls.bw_inst_read::cpu14.inst       391841                       # Instruction read bandwidth from this memory (bytes/s)
system.mem_ctrls.bw_inst_read::cpu15.inst       636742                       # Instruction read bandwidth from this memory (bytes/s)
system.mem_ctrls.bw_inst_read::total        117111540                       # Instruction read bandwidth from this memory (bytes/s)
system.mem_ctrls.bw_write::writebacks        53731225                       # Write bandwidth from this memory (bytes/s)
system.mem_ctrls.bw_write::total             53731225                       # Write bandwidth from this memory (bytes/s)
system.mem_ctrls.bw_total::writebacks        53731225                       # Total bandwidth to/from this memory (bytes/s)
system.mem_ctrls.bw_total::cpu00.inst        93943929                       # Total bandwidth to/from this memory (bytes/s)
system.mem_ctrls.bw_total::cpu00.data       289472690                       # Total bandwidth to/from this memory (bytes/s)
system.mem_ctrls.bw_total::cpu01.inst        11314415                       # Total bandwidth to/from this memory (bytes/s)
system.mem_ctrls.bw_total::cpu01.data         4506174                       # Total bandwidth to/from this memory (bytes/s)
system.mem_ctrls.bw_total::cpu02.inst          734702                       # Total bandwidth to/from this memory (bytes/s)
system.mem_ctrls.bw_total::cpu02.data         4457194                       # Total bandwidth to/from this memory (bytes/s)
system.mem_ctrls.bw_total::cpu03.inst          587762                       # Total bandwidth to/from this memory (bytes/s)
system.mem_ctrls.bw_total::cpu03.data         3575551                       # Total bandwidth to/from this memory (bytes/s)
system.mem_ctrls.bw_total::cpu04.inst           97960                       # Total bandwidth to/from this memory (bytes/s)
system.mem_ctrls.bw_total::cpu04.data         4261273                       # Total bandwidth to/from this memory (bytes/s)
system.mem_ctrls.bw_total::cpu05.inst           97960                       # Total bandwidth to/from this memory (bytes/s)
system.mem_ctrls.bw_total::cpu05.data         3918412                       # Total bandwidth to/from this memory (bytes/s)
system.mem_ctrls.bw_total::cpu06.inst          391841                       # Total bandwidth to/from this memory (bytes/s)
system.mem_ctrls.bw_total::cpu06.data         5142916                       # Total bandwidth to/from this memory (bytes/s)
system.mem_ctrls.bw_total::cpu07.inst          685722                       # Total bandwidth to/from this memory (bytes/s)
system.mem_ctrls.bw_total::cpu07.data         4163313                       # Total bandwidth to/from this memory (bytes/s)
system.mem_ctrls.bw_total::cpu08.inst          146940                       # Total bandwidth to/from this memory (bytes/s)
system.mem_ctrls.bw_total::cpu08.data         4212293                       # Total bandwidth to/from this memory (bytes/s)
system.mem_ctrls.bw_total::cpu09.inst          832663                       # Total bandwidth to/from this memory (bytes/s)
system.mem_ctrls.bw_total::cpu09.data         4163313                       # Total bandwidth to/from this memory (bytes/s)
system.mem_ctrls.bw_total::cpu10.inst         1518385                       # Total bandwidth to/from this memory (bytes/s)
system.mem_ctrls.bw_total::cpu10.data         5044956                       # Total bandwidth to/from this memory (bytes/s)
system.mem_ctrls.bw_total::cpu11.inst         1077563                       # Total bandwidth to/from this memory (bytes/s)
system.mem_ctrls.bw_total::cpu11.data         4751075                       # Total bandwidth to/from this memory (bytes/s)
system.mem_ctrls.bw_total::cpu12.inst         1616345                       # Total bandwidth to/from this memory (bytes/s)
system.mem_ctrls.bw_total::cpu12.data         4995975                       # Total bandwidth to/from this memory (bytes/s)
system.mem_ctrls.bw_total::cpu13.inst         3036769                       # Total bandwidth to/from this memory (bytes/s)
system.mem_ctrls.bw_total::cpu13.data         4212293                       # Total bandwidth to/from this memory (bytes/s)
system.mem_ctrls.bw_total::cpu14.inst          391841                       # Total bandwidth to/from this memory (bytes/s)
system.mem_ctrls.bw_total::cpu14.data         4212293                       # Total bandwidth to/from this memory (bytes/s)
system.mem_ctrls.bw_total::cpu15.inst          636742                       # Total bandwidth to/from this memory (bytes/s)
system.mem_ctrls.bw_total::cpu15.data         4849035                       # Total bandwidth to/from this memory (bytes/s)
system.mem_ctrls.bw_total::total            526781520                       # Total bandwidth to/from this memory (bytes/s)
system.cpu00.branchPred.lookups                132435                       # Number of BP lookups
system.cpu00.branchPred.condPredicted           73726                       # Number of conditional branches predicted
system.cpu00.branchPred.condIncorrect            5659                       # Number of conditional branches incorrect
system.cpu00.branchPred.BTBLookups              88686                       # Number of BTB lookups
system.cpu00.branchPred.BTBHits                 66335                       # Number of BTB hits
system.cpu00.branchPred.BTBCorrect                  0                       # Number of correct BTB predictions (this stat may not work properly.
system.cpu00.branchPred.BTBHitPct           74.797601                       # BTB Hit Percentage
system.cpu00.branchPred.usedRAS                 26453                       # Number of times the RAS was used to get a target.
system.cpu00.branchPred.RASInCorrect               84                       # Number of incorrect RAS predictions.
system.cpu00.branchPred.indirectLookups          3643                       # Number of indirect predictor lookups.
system.cpu00.branchPred.indirectHits             2880                       # Number of indirect target hits.
system.cpu00.branchPred.indirectMisses            763                       # Number of indirect misses.
system.cpu00.branchPredindirectMispredicted          251                       # Number of mispredicted indirect branches.
system.cpu_voltage_domain.voltage                   1                       # Voltage in Volts
system.cpu_clk_domain.clock                      1180                       # Clock period in ticks
system.cpu00.dtb.fetch_hits                         0                       # ITB hits
system.cpu00.dtb.fetch_misses                       0                       # ITB misses
system.cpu00.dtb.fetch_acv                          0                       # ITB acv
system.cpu00.dtb.fetch_accesses                     0                       # ITB accesses
system.cpu00.dtb.read_hits                     180884                       # DTB read hits
system.cpu00.dtb.read_misses                      625                       # DTB read misses
system.cpu00.dtb.read_acv                           0                       # DTB read access violations
system.cpu00.dtb.read_accesses                 181509                       # DTB read accesses
system.cpu00.dtb.write_hits                    127938                       # DTB write hits
system.cpu00.dtb.write_misses                    1073                       # DTB write misses
system.cpu00.dtb.write_acv                          0                       # DTB write access violations
system.cpu00.dtb.write_accesses                129011                       # DTB write accesses
system.cpu00.dtb.data_hits                     308822                       # DTB hits
system.cpu00.dtb.data_misses                     1698                       # DTB misses
system.cpu00.dtb.data_acv                           0                       # DTB access violations
system.cpu00.dtb.data_accesses                 310520                       # DTB accesses
system.cpu00.itb.fetch_hits                    148993                       # ITB hits
system.cpu00.itb.fetch_misses                     156                       # ITB misses
system.cpu00.itb.fetch_acv                          0                       # ITB acv
system.cpu00.itb.fetch_accesses                149149                       # ITB accesses
system.cpu00.itb.read_hits                          0                       # DTB read hits
system.cpu00.itb.read_misses                        0                       # DTB read misses
system.cpu00.itb.read_acv                           0                       # DTB read access violations
system.cpu00.itb.read_accesses                      0                       # DTB read accesses
system.cpu00.itb.write_hits                         0                       # DTB write hits
system.cpu00.itb.write_misses                       0                       # DTB write misses
system.cpu00.itb.write_acv                          0                       # DTB write access violations
system.cpu00.itb.write_accesses                     0                       # DTB write accesses
system.cpu00.itb.data_hits                          0                       # DTB hits
system.cpu00.itb.data_misses                        0                       # DTB misses
system.cpu00.itb.data_acv                           0                       # DTB access violations
system.cpu00.itb.data_accesses                      0                       # DTB accesses
system.cpu00.workload.num_syscalls               2820                       # Number of system calls
system.cpu00.numCycles                        1015128                       # number of cpu cycles simulated
system.cpu00.numWorkItemsStarted                    0                       # number of work items this cpu started
system.cpu00.numWorkItemsCompleted                  0                       # number of work items this cpu completed
system.cpu00.fetch.icacheStallCycles            81990                       # Number of cycles fetch is stalled on an Icache miss
system.cpu00.fetch.Insts                      1188760                       # Number of instructions fetch has processed
system.cpu00.fetch.Branches                    132435                       # Number of branches that fetch encountered
system.cpu00.fetch.predictedBranches            95668                       # Number of branches that fetch has predicted taken
system.cpu00.fetch.Cycles                      716643                       # Number of cycles fetch has run and was not squashing or blocked
system.cpu00.fetch.SquashCycles                 12684                       # Number of cycles fetch has spent squashing
system.cpu00.fetch.MiscStallCycles                431                       # Number of cycles fetch has spent waiting on interrupts, or bad addresses, or out of MSHRs
system.cpu00.fetch.PendingTrapStallCycles         6108                       # Number of stall cycles due to pending traps
system.cpu00.fetch.IcacheWaitRetryStallCycles          584                       # Number of stall cycles due to full MSHR
system.cpu00.fetch.CacheLines                  148993                       # Number of cache lines fetched
system.cpu00.fetch.IcacheSquashes                2576                       # Number of outstanding Icache misses that were squashed
system.cpu00.fetch.rateDist::samples           812098                       # Number of instructions fetched each cycle (Total)
system.cpu00.fetch.rateDist::mean            1.463813                       # Number of instructions fetched each cycle (Total)
system.cpu00.fetch.rateDist::stdev           2.728476                       # Number of instructions fetched each cycle (Total)
system.cpu00.fetch.rateDist::underflows             0      0.00%      0.00% # Number of instructions fetched each cycle (Total)
system.cpu00.fetch.rateDist::0                 594637     73.22%     73.22% # Number of instructions fetched each cycle (Total)
system.cpu00.fetch.rateDist::1                  16337      2.01%     75.23% # Number of instructions fetched each cycle (Total)
system.cpu00.fetch.rateDist::2                  17327      2.13%     77.37% # Number of instructions fetched each cycle (Total)
system.cpu00.fetch.rateDist::3                  16949      2.09%     79.45% # Number of instructions fetched each cycle (Total)
system.cpu00.fetch.rateDist::4                  37930      4.67%     84.13% # Number of instructions fetched each cycle (Total)
system.cpu00.fetch.rateDist::5                  15772      1.94%     86.07% # Number of instructions fetched each cycle (Total)
system.cpu00.fetch.rateDist::6                  18763      2.31%     88.38% # Number of instructions fetched each cycle (Total)
system.cpu00.fetch.rateDist::7                  11300      1.39%     89.77% # Number of instructions fetched each cycle (Total)
system.cpu00.fetch.rateDist::8                  83083     10.23%    100.00% # Number of instructions fetched each cycle (Total)
system.cpu00.fetch.rateDist::overflows              0      0.00%    100.00% # Number of instructions fetched each cycle (Total)
system.cpu00.fetch.rateDist::min_value              0                       # Number of instructions fetched each cycle (Total)
system.cpu00.fetch.rateDist::max_value              8                       # Number of instructions fetched each cycle (Total)
system.cpu00.fetch.rateDist::total             812098                       # Number of instructions fetched each cycle (Total)
system.cpu00.fetch.branchRate                0.130461                       # Number of branch fetches per cycle
system.cpu00.fetch.rate                      1.171044                       # Number of inst fetches per cycle
system.cpu00.decode.IdleCycles                  89013                       # Number of cycles decode is idle
system.cpu00.decode.BlockedCycles              555613                       # Number of cycles decode is blocked
system.cpu00.decode.RunCycles                  129774                       # Number of cycles decode is running
system.cpu00.decode.UnblockCycles               33090                       # Number of cycles decode is unblocking
system.cpu00.decode.SquashCycles                 4608                       # Number of cycles decode is squashing
system.cpu00.decode.BranchResolved              26508                       # Number of times decode resolved a branch
system.cpu00.decode.BranchMispred                1782                       # Number of times decode detected a branch misprediction
system.cpu00.decode.DecodedInsts              1124922                       # Number of instructions handled by decode
system.cpu00.decode.SquashedInsts                7287                       # Number of squashed instructions handled by decode
system.cpu00.rename.SquashCycles                 4608                       # Number of cycles rename is squashing
system.cpu00.rename.IdleCycles                 104862                       # Number of cycles rename is idle
system.cpu00.rename.BlockCycles                 90370                       # Number of cycles rename is blocking
system.cpu00.rename.serializeStallCycles       217851                       # count of cycles rename stalled for serializing inst
system.cpu00.rename.RunCycles                  147181                       # Number of cycles rename is running
system.cpu00.rename.UnblockCycles              247226                       # Number of cycles rename is unblocking
system.cpu00.rename.RenamedInsts              1105690                       # Number of instructions processed by rename
system.cpu00.rename.ROBFullEvents                2710                       # Number of times rename has blocked due to ROB full
system.cpu00.rename.IQFullEvents                22078                       # Number of times rename has blocked due to IQ full
system.cpu00.rename.LQFullEvents                 2194                       # Number of times rename has blocked due to LQ full
system.cpu00.rename.SQFullEvents               212479                       # Number of times rename has blocked due to SQ full
system.cpu00.rename.RenamedOperands            757923                       # Number of destination operands rename has renamed
system.cpu00.rename.RenameLookups             1368922                       # Number of register rename lookups that rename has made
system.cpu00.rename.int_rename_lookups        1210822                       # Number of integer rename lookups
system.cpu00.rename.fp_rename_lookups          155813                       # Number of floating rename lookups
system.cpu00.rename.CommittedMaps              668798                       # Number of HB maps that are committed
system.cpu00.rename.UndoneMaps                  89125                       # Number of HB maps that are undone due to squashing
system.cpu00.rename.serializingInsts             4020                       # count of serializing insts renamed
system.cpu00.rename.tempSerializingInsts         1653                       # count of temporary serializing insts renamed
system.cpu00.rename.skidInsts                  148131                       # count of insts added to the skid buffer
system.cpu00.memDep0.insertedLoads             179592                       # Number of loads inserted to the mem dependence unit.
system.cpu00.memDep0.insertedStores            135252                       # Number of stores inserted to the mem dependence unit.
system.cpu00.memDep0.conflictingLoads           32097                       # Number of conflicting loads.
system.cpu00.memDep0.conflictingStores          12354                       # Number of conflicting stores.
system.cpu00.iq.iqInstsAdded                   968572                       # Number of instructions added to the IQ (excludes non-spec)
system.cpu00.iq.iqNonSpecInstsAdded              2721                       # Number of non-speculative instructions added to the IQ
system.cpu00.iq.iqInstsIssued                  952447                       # Number of instructions issued
system.cpu00.iq.iqSquashedInstsIssued            1562                       # Number of squashed instructions issued
system.cpu00.iq.iqSquashedInstsExamined        101458                       # Number of squashed instructions iterated over during squash; mainly for profiling
system.cpu00.iq.iqSquashedOperandsExamined        50025                       # Number of squashed operands that are examined and possibly removed from graph
system.cpu00.iq.iqSquashedNonSpecRemoved          348                       # Number of squashed non-spec instructions that were removed
system.cpu00.iq.issued_per_cycle::samples       812098                       # Number of insts issued each cycle
system.cpu00.iq.issued_per_cycle::mean       1.172823                       # Number of insts issued each cycle
system.cpu00.iq.issued_per_cycle::stdev      1.941050                       # Number of insts issued each cycle
system.cpu00.iq.issued_per_cycle::underflows            0      0.00%      0.00% # Number of insts issued each cycle
system.cpu00.iq.issued_per_cycle::0            514884     63.40%     63.40% # Number of insts issued each cycle
system.cpu00.iq.issued_per_cycle::1             73273      9.02%     72.42% # Number of insts issued each cycle
system.cpu00.iq.issued_per_cycle::2             60242      7.42%     79.84% # Number of insts issued each cycle
system.cpu00.iq.issued_per_cycle::3             45095      5.55%     85.40% # Number of insts issued each cycle
system.cpu00.iq.issued_per_cycle::4             43459      5.35%     90.75% # Number of insts issued each cycle
system.cpu00.iq.issued_per_cycle::5             28622      3.52%     94.27% # Number of insts issued each cycle
system.cpu00.iq.issued_per_cycle::6             27091      3.34%     97.61% # Number of insts issued each cycle
system.cpu00.iq.issued_per_cycle::7             11543      1.42%     99.03% # Number of insts issued each cycle
system.cpu00.iq.issued_per_cycle::8              7889      0.97%    100.00% # Number of insts issued each cycle
system.cpu00.iq.issued_per_cycle::overflows            0      0.00%    100.00% # Number of insts issued each cycle
system.cpu00.iq.issued_per_cycle::min_value            0                       # Number of insts issued each cycle
system.cpu00.iq.issued_per_cycle::max_value            8                       # Number of insts issued each cycle
system.cpu00.iq.issued_per_cycle::total        812098                       # Number of insts issued each cycle
system.cpu00.iq.fu_full::No_OpClass                 0      0.00%      0.00% # attempts to use FU when none available
system.cpu00.iq.fu_full::IntAlu                  4990     16.16%     16.16% # attempts to use FU when none available
system.cpu00.iq.fu_full::IntMult                 4097     13.27%     29.43% # attempts to use FU when none available
system.cpu00.iq.fu_full::IntDiv                     0      0.00%     29.43% # attempts to use FU when none available
system.cpu00.iq.fu_full::FloatAdd                  81      0.26%     29.69% # attempts to use FU when none available
system.cpu00.iq.fu_full::FloatCmp                   0      0.00%     29.69% # attempts to use FU when none available
system.cpu00.iq.fu_full::FloatCvt                   0      0.00%     29.69% # attempts to use FU when none available
system.cpu00.iq.fu_full::FloatMult               5887     19.07%     48.76% # attempts to use FU when none available
system.cpu00.iq.fu_full::FloatDiv                   0      0.00%     48.76% # attempts to use FU when none available
system.cpu00.iq.fu_full::FloatSqrt                  0      0.00%     48.76% # attempts to use FU when none available
system.cpu00.iq.fu_full::SimdAdd                    0      0.00%     48.76% # attempts to use FU when none available
system.cpu00.iq.fu_full::SimdAddAcc                 0      0.00%     48.76% # attempts to use FU when none available
system.cpu00.iq.fu_full::SimdAlu                    0      0.00%     48.76% # attempts to use FU when none available
system.cpu00.iq.fu_full::SimdCmp                    0      0.00%     48.76% # attempts to use FU when none available
system.cpu00.iq.fu_full::SimdCvt                    0      0.00%     48.76% # attempts to use FU when none available
system.cpu00.iq.fu_full::SimdMisc                   0      0.00%     48.76% # attempts to use FU when none available
system.cpu00.iq.fu_full::SimdMult                   0      0.00%     48.76% # attempts to use FU when none available
system.cpu00.iq.fu_full::SimdMultAcc                0      0.00%     48.76% # attempts to use FU when none available
system.cpu00.iq.fu_full::SimdShift                  0      0.00%     48.76% # attempts to use FU when none available
system.cpu00.iq.fu_full::SimdShiftAcc               0      0.00%     48.76% # attempts to use FU when none available
system.cpu00.iq.fu_full::SimdSqrt                   0      0.00%     48.76% # attempts to use FU when none available
system.cpu00.iq.fu_full::SimdFloatAdd               0      0.00%     48.76% # attempts to use FU when none available
system.cpu00.iq.fu_full::SimdFloatAlu               0      0.00%     48.76% # attempts to use FU when none available
system.cpu00.iq.fu_full::SimdFloatCmp               0      0.00%     48.76% # attempts to use FU when none available
system.cpu00.iq.fu_full::SimdFloatCvt               0      0.00%     48.76% # attempts to use FU when none available
system.cpu00.iq.fu_full::SimdFloatDiv               0      0.00%     48.76% # attempts to use FU when none available
system.cpu00.iq.fu_full::SimdFloatMisc              0      0.00%     48.76% # attempts to use FU when none available
system.cpu00.iq.fu_full::SimdFloatMult              0      0.00%     48.76% # attempts to use FU when none available
system.cpu00.iq.fu_full::SimdFloatMultAcc            0      0.00%     48.76% # attempts to use FU when none available
system.cpu00.iq.fu_full::SimdFloatSqrt              0      0.00%     48.76% # attempts to use FU when none available
system.cpu00.iq.fu_full::MemRead                 9655     31.27%     80.03% # attempts to use FU when none available
system.cpu00.iq.fu_full::MemWrite                6167     19.97%    100.00% # attempts to use FU when none available
system.cpu00.iq.fu_full::IprAccess                  0      0.00%    100.00% # attempts to use FU when none available
system.cpu00.iq.fu_full::InstPrefetch               0      0.00%    100.00% # attempts to use FU when none available
system.cpu00.iq.FU_type_0::No_OpClass               0      0.00%      0.00% # Type of FU issued
system.cpu00.iq.FU_type_0::IntAlu              551559     57.91%     57.91% # Type of FU issued
system.cpu00.iq.FU_type_0::IntMult              12789      1.34%     59.25% # Type of FU issued
system.cpu00.iq.FU_type_0::IntDiv                   0      0.00%     59.25% # Type of FU issued
system.cpu00.iq.FU_type_0::FloatAdd             35723      3.75%     63.00% # Type of FU issued
system.cpu00.iq.FU_type_0::FloatCmp                 8      0.00%     63.00% # Type of FU issued
system.cpu00.iq.FU_type_0::FloatCvt                 0      0.00%     63.00% # Type of FU issued
system.cpu00.iq.FU_type_0::FloatMult            37112      3.90%     66.90% # Type of FU issued
system.cpu00.iq.FU_type_0::FloatDiv                16      0.00%     66.90% # Type of FU issued
system.cpu00.iq.FU_type_0::FloatSqrt                0      0.00%     66.90% # Type of FU issued
system.cpu00.iq.FU_type_0::SimdAdd                  0      0.00%     66.90% # Type of FU issued
system.cpu00.iq.FU_type_0::SimdAddAcc               0      0.00%     66.90% # Type of FU issued
system.cpu00.iq.FU_type_0::SimdAlu                  0      0.00%     66.90% # Type of FU issued
system.cpu00.iq.FU_type_0::SimdCmp                  0      0.00%     66.90% # Type of FU issued
system.cpu00.iq.FU_type_0::SimdCvt                  0      0.00%     66.90% # Type of FU issued
system.cpu00.iq.FU_type_0::SimdMisc                 0      0.00%     66.90% # Type of FU issued
system.cpu00.iq.FU_type_0::SimdMult                 0      0.00%     66.90% # Type of FU issued
system.cpu00.iq.FU_type_0::SimdMultAcc              0      0.00%     66.90% # Type of FU issued
system.cpu00.iq.FU_type_0::SimdShift                0      0.00%     66.90% # Type of FU issued
system.cpu00.iq.FU_type_0::SimdShiftAcc             0      0.00%     66.90% # Type of FU issued
system.cpu00.iq.FU_type_0::SimdSqrt                 0      0.00%     66.90% # Type of FU issued
system.cpu00.iq.FU_type_0::SimdFloatAdd             0      0.00%     66.90% # Type of FU issued
system.cpu00.iq.FU_type_0::SimdFloatAlu             0      0.00%     66.90% # Type of FU issued
system.cpu00.iq.FU_type_0::SimdFloatCmp             0      0.00%     66.90% # Type of FU issued
system.cpu00.iq.FU_type_0::SimdFloatCvt             0      0.00%     66.90% # Type of FU issued
system.cpu00.iq.FU_type_0::SimdFloatDiv             0      0.00%     66.90% # Type of FU issued
system.cpu00.iq.FU_type_0::SimdFloatMisc            0      0.00%     66.90% # Type of FU issued
system.cpu00.iq.FU_type_0::SimdFloatMult            0      0.00%     66.90% # Type of FU issued
system.cpu00.iq.FU_type_0::SimdFloatMultAcc            0      0.00%     66.90% # Type of FU issued
system.cpu00.iq.FU_type_0::SimdFloatSqrt            0      0.00%     66.90% # Type of FU issued
system.cpu00.iq.FU_type_0::MemRead             184770     19.40%     86.30% # Type of FU issued
system.cpu00.iq.FU_type_0::MemWrite            130470     13.70%    100.00% # Type of FU issued
system.cpu00.iq.FU_type_0::IprAccess                0      0.00%    100.00% # Type of FU issued
system.cpu00.iq.FU_type_0::InstPrefetch             0      0.00%    100.00% # Type of FU issued
system.cpu00.iq.FU_type_0::total               952447                       # Type of FU issued
system.cpu00.iq.rate                         0.938253                       # Inst issue rate
system.cpu00.iq.fu_busy_cnt                     30877                       # FU busy when requested
system.cpu00.iq.fu_busy_rate                 0.032419                       # FU busy rate (busy events/executed inst)
system.cpu00.iq.int_inst_queue_reads          2506153                       # Number of integer instruction queue reads
system.cpu00.iq.int_inst_queue_writes          949863                       # Number of integer instruction queue writes
system.cpu00.iq.int_inst_queue_wakeup_accesses       814364                       # Number of integer instruction queue wakeup accesses
system.cpu00.iq.fp_inst_queue_reads            243278                       # Number of floating instruction queue reads
system.cpu00.iq.fp_inst_queue_writes           123304                       # Number of floating instruction queue writes
system.cpu00.iq.fp_inst_queue_wakeup_accesses       116951                       # Number of floating instruction queue wakeup accesses
system.cpu00.iq.int_alu_accesses               858372                       # Number of integer alu accesses
system.cpu00.iq.fp_alu_accesses                124952                       # Number of floating point alu accesses
system.cpu00.iew.lsq.thread0.forwLoads          21158                       # Number of loads that had data forwarded from stores
system.cpu00.iew.lsq.thread0.invAddrLoads            0                       # Number of loads ignored due to an invalid address
system.cpu00.iew.lsq.thread0.squashedLoads        18636                       # Number of loads squashed
system.cpu00.iew.lsq.thread0.ignoredResponses           68                       # Number of memory responses ignored because the instruction is squashed
system.cpu00.iew.lsq.thread0.memOrderViolation          428                       # Number of memory ordering violations
system.cpu00.iew.lsq.thread0.squashedStores        15731                       # Number of stores squashed
system.cpu00.iew.lsq.thread0.invAddrSwpfs            0                       # Number of software prefetches ignored due to an invalid address
system.cpu00.iew.lsq.thread0.blockedLoads            0                       # Number of blocked loads due to partial load-store forwarding
system.cpu00.iew.lsq.thread0.rescheduledLoads          207                       # Number of loads that were rescheduled
system.cpu00.iew.lsq.thread0.cacheBlocked         9601                       # Number of times an access to memory failed due to the cache being blocked
system.cpu00.iew.iewIdleCycles                      0                       # Number of cycles IEW is idle
system.cpu00.iew.iewSquashCycles                 4608                       # Number of cycles IEW is squashing
system.cpu00.iew.iewBlockCycles                 22094                       # Number of cycles IEW is blocking
system.cpu00.iew.iewUnblockCycles               61102                       # Number of cycles IEW is unblocking
system.cpu00.iew.iewDispatchedInsts           1078844                       # Number of instructions dispatched to IQ
system.cpu00.iew.iewDispSquashedInsts            1555                       # Number of squashed instructions skipped by dispatch
system.cpu00.iew.iewDispLoadInsts              179592                       # Number of dispatched load instructions
system.cpu00.iew.iewDispStoreInsts             135252                       # Number of dispatched store instructions
system.cpu00.iew.iewDispNonSpecInsts             1561                       # Number of dispatched non-speculative instructions
system.cpu00.iew.iewIQFullEvents                  105                       # Number of times the IQ has become full, causing a stall
system.cpu00.iew.iewLSQFullEvents               60901                       # Number of times the LSQ has become full, causing a stall
system.cpu00.iew.memOrderViolationEvents          428                       # Number of memory order violations
system.cpu00.iew.predictedTakenIncorrect         1575                       # Number of branches that were predicted taken incorrectly
system.cpu00.iew.predictedNotTakenIncorrect         3120                       # Number of branches that were predicted not taken incorrectly
system.cpu00.iew.branchMispredicts               4695                       # Number of branch mispredicts detected at execute
system.cpu00.iew.iewExecutedInsts              944803                       # Number of executed instructions
system.cpu00.iew.iewExecLoadInsts              181530                       # Number of load instructions executed
system.cpu00.iew.iewExecSquashedInsts            7644                       # Number of squashed instructions skipped in execute
system.cpu00.iew.exec_swp                           0                       # number of swp insts executed
system.cpu00.iew.exec_nop                      107551                       # number of nop insts executed
system.cpu00.iew.exec_refs                     310550                       # number of memory reference insts executed
system.cpu00.iew.exec_branches                 110503                       # Number of branches executed
system.cpu00.iew.exec_stores                   129020                       # Number of stores executed
system.cpu00.iew.exec_rate                   0.930723                       # Inst execution rate
system.cpu00.iew.wb_sent                       934925                       # cumulative count of insts sent to commit
system.cpu00.iew.wb_count                      931315                       # cumulative count of insts written-back
system.cpu00.iew.wb_producers                  546076                       # num instructions producing a value
system.cpu00.iew.wb_consumers                  777937                       # num instructions consuming a value
system.cpu00.iew.wb_rate                     0.917436                       # insts written-back per cycle
system.cpu00.iew.wb_fanout                   0.701954                       # average fanout of values written-back
system.cpu00.commit.commitSquashedInsts        105662                       # The number of squashed insts skipped by commit
system.cpu00.commit.commitNonSpecStalls          2373                       # The number of times commit has been forced to stall to communicate backwards
system.cpu00.commit.branchMispredicts            3925                       # The number of times a branch was mispredicted
system.cpu00.commit.committed_per_cycle::samples       795576                       # Number of insts commited each cycle
system.cpu00.commit.committed_per_cycle::mean     1.217289                       # Number of insts commited each cycle
system.cpu00.commit.committed_per_cycle::stdev     2.310854                       # Number of insts commited each cycle
system.cpu00.commit.committed_per_cycle::underflows            0      0.00%      0.00% # Number of insts commited each cycle
system.cpu00.commit.committed_per_cycle::0       547232     68.78%     68.78% # Number of insts commited each cycle
system.cpu00.commit.committed_per_cycle::1        51422      6.46%     75.25% # Number of insts commited each cycle
system.cpu00.commit.committed_per_cycle::2        51285      6.45%     81.69% # Number of insts commited each cycle
system.cpu00.commit.committed_per_cycle::3        30250      3.80%     85.50% # Number of insts commited each cycle
system.cpu00.commit.committed_per_cycle::4        35475      4.46%     89.96% # Number of insts commited each cycle
system.cpu00.commit.committed_per_cycle::5         8826      1.11%     91.06% # Number of insts commited each cycle
system.cpu00.commit.committed_per_cycle::6        12965      1.63%     92.69% # Number of insts commited each cycle
system.cpu00.commit.committed_per_cycle::7         5084      0.64%     93.33% # Number of insts commited each cycle
system.cpu00.commit.committed_per_cycle::8        53037      6.67%    100.00% # Number of insts commited each cycle
system.cpu00.commit.committed_per_cycle::overflows            0      0.00%    100.00% # Number of insts commited each cycle
system.cpu00.commit.committed_per_cycle::min_value            0                       # Number of insts commited each cycle
system.cpu00.commit.committed_per_cycle::max_value            8                       # Number of insts commited each cycle
system.cpu00.commit.committed_per_cycle::total       795576                       # Number of insts commited each cycle
system.cpu00.commit.committedInsts             968446                       # Number of instructions committed
system.cpu00.commit.committedOps               968446                       # Number of ops (including micro ops) committed
system.cpu00.commit.swp_count                       0                       # Number of s/w prefetches committed
system.cpu00.commit.refs                       280477                       # Number of memory references committed
system.cpu00.commit.loads                      160956                       # Number of loads committed
system.cpu00.commit.membars                      1035                       # Number of memory barriers committed
system.cpu00.commit.branches                   100095                       # Number of branches committed
system.cpu00.commit.fp_insts                   116058                       # Number of committed floating point instructions.
system.cpu00.commit.int_insts                  791963                       # Number of committed integer instructions.
system.cpu00.commit.function_calls              22220                       # Number of function calls committed.
system.cpu00.commit.op_class_0::No_OpClass        98612     10.18%     10.18% # Class of committed instruction
system.cpu00.commit.op_class_0::IntAlu         503195     51.96%     62.14% # Class of committed instruction
system.cpu00.commit.op_class_0::IntMult         12689      1.31%     63.45% # Class of committed instruction
system.cpu00.commit.op_class_0::IntDiv              0      0.00%     63.45% # Class of committed instruction
system.cpu00.commit.op_class_0::FloatAdd        35480      3.66%     67.12% # Class of committed instruction
system.cpu00.commit.op_class_0::FloatCmp            8      0.00%     67.12% # Class of committed instruction
system.cpu00.commit.op_class_0::FloatCvt            0      0.00%     67.12% # Class of committed instruction
system.cpu00.commit.op_class_0::FloatMult        36935      3.81%     70.93% # Class of committed instruction
system.cpu00.commit.op_class_0::FloatDiv           14      0.00%     70.93% # Class of committed instruction
system.cpu00.commit.op_class_0::FloatSqrt            0      0.00%     70.93% # Class of committed instruction
system.cpu00.commit.op_class_0::SimdAdd             0      0.00%     70.93% # Class of committed instruction
system.cpu00.commit.op_class_0::SimdAddAcc            0      0.00%     70.93% # Class of committed instruction
system.cpu00.commit.op_class_0::SimdAlu             0      0.00%     70.93% # Class of committed instruction
system.cpu00.commit.op_class_0::SimdCmp             0      0.00%     70.93% # Class of committed instruction
system.cpu00.commit.op_class_0::SimdCvt             0      0.00%     70.93% # Class of committed instruction
system.cpu00.commit.op_class_0::SimdMisc            0      0.00%     70.93% # Class of committed instruction
system.cpu00.commit.op_class_0::SimdMult            0      0.00%     70.93% # Class of committed instruction
system.cpu00.commit.op_class_0::SimdMultAcc            0      0.00%     70.93% # Class of committed instruction
system.cpu00.commit.op_class_0::SimdShift            0      0.00%     70.93% # Class of committed instruction
system.cpu00.commit.op_class_0::SimdShiftAcc            0      0.00%     70.93% # Class of committed instruction
system.cpu00.commit.op_class_0::SimdSqrt            0      0.00%     70.93% # Class of committed instruction
system.cpu00.commit.op_class_0::SimdFloatAdd            0      0.00%     70.93% # Class of committed instruction
system.cpu00.commit.op_class_0::SimdFloatAlu            0      0.00%     70.93% # Class of committed instruction
system.cpu00.commit.op_class_0::SimdFloatCmp            0      0.00%     70.93% # Class of committed instruction
system.cpu00.commit.op_class_0::SimdFloatCvt            0      0.00%     70.93% # Class of committed instruction
system.cpu00.commit.op_class_0::SimdFloatDiv            0      0.00%     70.93% # Class of committed instruction
system.cpu00.commit.op_class_0::SimdFloatMisc            0      0.00%     70.93% # Class of committed instruction
system.cpu00.commit.op_class_0::SimdFloatMult            0      0.00%     70.93% # Class of committed instruction
system.cpu00.commit.op_class_0::SimdFloatMultAcc            0      0.00%     70.93% # Class of committed instruction
system.cpu00.commit.op_class_0::SimdFloatSqrt            0      0.00%     70.93% # Class of committed instruction
system.cpu00.commit.op_class_0::MemRead        161991     16.73%     87.66% # Class of committed instruction
system.cpu00.commit.op_class_0::MemWrite       119522     12.34%    100.00% # Class of committed instruction
system.cpu00.commit.op_class_0::IprAccess            0      0.00%    100.00% # Class of committed instruction
system.cpu00.commit.op_class_0::InstPrefetch            0      0.00%    100.00% # Class of committed instruction
system.cpu00.commit.op_class_0::total          968446                       # Class of committed instruction
system.cpu00.commit.bw_lim_events               53037                       # number cycles where commit BW limit reached
system.cpu00.rob.rob_reads                    1812669                       # The number of ROB reads
system.cpu00.rob.rob_writes                   2164850                       # The number of ROB writes
system.cpu00.timesIdled                          1435                       # Number of times that the entire CPU went into an idle state and unscheduled itself
system.cpu00.idleCycles                        203030                       # Total number of cycles that the CPU has spent unscheduled due to idling
system.cpu00.quiesceCycles                      92205                       # Total number of cycles that CPU has spent quiesced or waiting for an interrupt
system.cpu00.committedInsts                    869834                       # Number of Instructions Simulated
system.cpu00.committedOps                      869834                       # Number of Ops (including micro ops) Simulated
system.cpu00.cpi                             1.167036                       # CPI: Cycles Per Instruction
system.cpu00.cpi_total                       1.167036                       # CPI: Total CPI of All Threads
system.cpu00.ipc                             0.856871                       # IPC: Instructions Per Cycle
system.cpu00.ipc_total                       0.856871                       # IPC: Total IPC of All Threads
system.cpu00.int_regfile_reads                1141254                       # number of integer regfile reads
system.cpu00.int_regfile_writes                613123                       # number of integer regfile writes
system.cpu00.fp_regfile_reads                  151789                       # number of floating regfile reads
system.cpu00.fp_regfile_writes                 102907                       # number of floating regfile writes
system.cpu00.misc_regfile_reads                  5002                       # number of misc regfile reads
system.cpu00.misc_regfile_writes                 2250                       # number of misc regfile writes
system.cpu00.dcache.tags.replacements           12009                       # number of replacements
system.cpu00.dcache.tags.tagsinuse         123.791855                       # Cycle average of tags in use
system.cpu00.dcache.tags.total_refs            228623                       # Total number of references to valid blocks.
system.cpu00.dcache.tags.sampled_refs           12136                       # Sample count of references to valid blocks.
system.cpu00.dcache.tags.avg_refs           18.838415                       # Average number of references to valid blocks.
system.cpu00.dcache.tags.warmup_cycle        90049340                       # Cycle when the warmup percentage was hit.
system.cpu00.dcache.tags.occ_blocks::cpu00.data   123.791855                       # Average occupied blocks per requestor
system.cpu00.dcache.tags.occ_percent::cpu00.data     0.967124                       # Average percentage of cache occupancy
system.cpu00.dcache.tags.occ_percent::total     0.967124                       # Average percentage of cache occupancy
system.cpu00.dcache.tags.occ_task_id_blocks::1024          127                       # Occupied blocks per task id
system.cpu00.dcache.tags.age_task_id_blocks_1024::0           68                       # Occupied blocks per task id
system.cpu00.dcache.tags.age_task_id_blocks_1024::1           53                       # Occupied blocks per task id
system.cpu00.dcache.tags.age_task_id_blocks_1024::2            6                       # Occupied blocks per task id
system.cpu00.dcache.tags.occ_task_id_percent::1024     0.992188                       # Percentage of cache occupancy per task id
system.cpu00.dcache.tags.tag_accesses          555140                       # Number of tag accesses
system.cpu00.dcache.tags.data_accesses         555140                       # Number of data accesses
system.cpu00.dcache.ReadReq_hits::cpu00.data       141812                       # number of ReadReq hits
system.cpu00.dcache.ReadReq_hits::total        141812                       # number of ReadReq hits
system.cpu00.dcache.WriteReq_hits::cpu00.data        84632                       # number of WriteReq hits
system.cpu00.dcache.WriteReq_hits::total        84632                       # number of WriteReq hits
system.cpu00.dcache.LoadLockedReq_hits::cpu00.data          933                       # number of LoadLockedReq hits
system.cpu00.dcache.LoadLockedReq_hits::total          933                       # number of LoadLockedReq hits
system.cpu00.dcache.StoreCondReq_hits::cpu00.data         1099                       # number of StoreCondReq hits
system.cpu00.dcache.StoreCondReq_hits::total         1099                       # number of StoreCondReq hits
system.cpu00.dcache.demand_hits::cpu00.data       226444                       # number of demand (read+write) hits
system.cpu00.dcache.demand_hits::total         226444                       # number of demand (read+write) hits
system.cpu00.dcache.overall_hits::cpu00.data       226444                       # number of overall hits
system.cpu00.dcache.overall_hits::total        226444                       # number of overall hits
system.cpu00.dcache.ReadReq_misses::cpu00.data         8859                       # number of ReadReq misses
system.cpu00.dcache.ReadReq_misses::total         8859                       # number of ReadReq misses
system.cpu00.dcache.WriteReq_misses::cpu00.data        33767                       # number of WriteReq misses
system.cpu00.dcache.WriteReq_misses::total        33767                       # number of WriteReq misses
system.cpu00.dcache.LoadLockedReq_misses::cpu00.data          254                       # number of LoadLockedReq misses
system.cpu00.dcache.LoadLockedReq_misses::total          254                       # number of LoadLockedReq misses
system.cpu00.dcache.StoreCondReq_misses::cpu00.data           23                       # number of StoreCondReq misses
system.cpu00.dcache.StoreCondReq_misses::total           23                       # number of StoreCondReq misses
system.cpu00.dcache.demand_misses::cpu00.data        42626                       # number of demand (read+write) misses
system.cpu00.dcache.demand_misses::total        42626                       # number of demand (read+write) misses
system.cpu00.dcache.overall_misses::cpu00.data        42626                       # number of overall misses
system.cpu00.dcache.overall_misses::total        42626                       # number of overall misses
system.cpu00.dcache.ReadReq_miss_latency::cpu00.data    407379660                       # number of ReadReq miss cycles
system.cpu00.dcache.ReadReq_miss_latency::total    407379660                       # number of ReadReq miss cycles
system.cpu00.dcache.WriteReq_miss_latency::cpu00.data   5416601944                       # number of WriteReq miss cycles
system.cpu00.dcache.WriteReq_miss_latency::total   5416601944                       # number of WriteReq miss cycles
system.cpu00.dcache.LoadLockedReq_miss_latency::cpu00.data      2676240                       # number of LoadLockedReq miss cycles
system.cpu00.dcache.LoadLockedReq_miss_latency::total      2676240                       # number of LoadLockedReq miss cycles
system.cpu00.dcache.StoreCondReq_miss_latency::cpu00.data       479080                       # number of StoreCondReq miss cycles
system.cpu00.dcache.StoreCondReq_miss_latency::total       479080                       # number of StoreCondReq miss cycles
system.cpu00.dcache.demand_miss_latency::cpu00.data   5823981604                       # number of demand (read+write) miss cycles
system.cpu00.dcache.demand_miss_latency::total   5823981604                       # number of demand (read+write) miss cycles
system.cpu00.dcache.overall_miss_latency::cpu00.data   5823981604                       # number of overall miss cycles
system.cpu00.dcache.overall_miss_latency::total   5823981604                       # number of overall miss cycles
system.cpu00.dcache.ReadReq_accesses::cpu00.data       150671                       # number of ReadReq accesses(hits+misses)
system.cpu00.dcache.ReadReq_accesses::total       150671                       # number of ReadReq accesses(hits+misses)
system.cpu00.dcache.WriteReq_accesses::cpu00.data       118399                       # number of WriteReq accesses(hits+misses)
system.cpu00.dcache.WriteReq_accesses::total       118399                       # number of WriteReq accesses(hits+misses)
system.cpu00.dcache.LoadLockedReq_accesses::cpu00.data         1187                       # number of LoadLockedReq accesses(hits+misses)
system.cpu00.dcache.LoadLockedReq_accesses::total         1187                       # number of LoadLockedReq accesses(hits+misses)
system.cpu00.dcache.StoreCondReq_accesses::cpu00.data         1122                       # number of StoreCondReq accesses(hits+misses)
system.cpu00.dcache.StoreCondReq_accesses::total         1122                       # number of StoreCondReq accesses(hits+misses)
system.cpu00.dcache.demand_accesses::cpu00.data       269070                       # number of demand (read+write) accesses
system.cpu00.dcache.demand_accesses::total       269070                       # number of demand (read+write) accesses
system.cpu00.dcache.overall_accesses::cpu00.data       269070                       # number of overall (read+write) accesses
system.cpu00.dcache.overall_accesses::total       269070                       # number of overall (read+write) accesses
system.cpu00.dcache.ReadReq_miss_rate::cpu00.data     0.058797                       # miss rate for ReadReq accesses
system.cpu00.dcache.ReadReq_miss_rate::total     0.058797                       # miss rate for ReadReq accesses
system.cpu00.dcache.WriteReq_miss_rate::cpu00.data     0.285197                       # miss rate for WriteReq accesses
system.cpu00.dcache.WriteReq_miss_rate::total     0.285197                       # miss rate for WriteReq accesses
system.cpu00.dcache.LoadLockedReq_miss_rate::cpu00.data     0.213985                       # miss rate for LoadLockedReq accesses
system.cpu00.dcache.LoadLockedReq_miss_rate::total     0.213985                       # miss rate for LoadLockedReq accesses
system.cpu00.dcache.StoreCondReq_miss_rate::cpu00.data     0.020499                       # miss rate for StoreCondReq accesses
system.cpu00.dcache.StoreCondReq_miss_rate::total     0.020499                       # miss rate for StoreCondReq accesses
system.cpu00.dcache.demand_miss_rate::cpu00.data     0.158420                       # miss rate for demand accesses
system.cpu00.dcache.demand_miss_rate::total     0.158420                       # miss rate for demand accesses
system.cpu00.dcache.overall_miss_rate::cpu00.data     0.158420                       # miss rate for overall accesses
system.cpu00.dcache.overall_miss_rate::total     0.158420                       # miss rate for overall accesses
system.cpu00.dcache.ReadReq_avg_miss_latency::cpu00.data 45984.835760                       # average ReadReq miss latency
system.cpu00.dcache.ReadReq_avg_miss_latency::total 45984.835760                       # average ReadReq miss latency
system.cpu00.dcache.WriteReq_avg_miss_latency::cpu00.data 160411.109782                       # average WriteReq miss latency
system.cpu00.dcache.WriteReq_avg_miss_latency::total 160411.109782                       # average WriteReq miss latency
system.cpu00.dcache.LoadLockedReq_avg_miss_latency::cpu00.data 10536.377953                       # average LoadLockedReq miss latency
system.cpu00.dcache.LoadLockedReq_avg_miss_latency::total 10536.377953                       # average LoadLockedReq miss latency
system.cpu00.dcache.StoreCondReq_avg_miss_latency::cpu00.data 20829.565217                       # average StoreCondReq miss latency
system.cpu00.dcache.StoreCondReq_avg_miss_latency::total 20829.565217                       # average StoreCondReq miss latency
system.cpu00.dcache.demand_avg_miss_latency::cpu00.data 136629.794116                       # average overall miss latency
system.cpu00.dcache.demand_avg_miss_latency::total 136629.794116                       # average overall miss latency
system.cpu00.dcache.overall_avg_miss_latency::cpu00.data 136629.794116                       # average overall miss latency
system.cpu00.dcache.overall_avg_miss_latency::total 136629.794116                       # average overall miss latency
system.cpu00.dcache.blocked_cycles::no_mshrs       156195                       # number of cycles access was blocked
system.cpu00.dcache.blocked_cycles::no_targets            0                       # number of cycles access was blocked
system.cpu00.dcache.blocked::no_mshrs            2795                       # number of cycles access was blocked
system.cpu00.dcache.blocked::no_targets             0                       # number of cycles access was blocked
system.cpu00.dcache.avg_blocked_cycles::no_mshrs    55.883721                       # average number of cycles each access was blocked
system.cpu00.dcache.avg_blocked_cycles::no_targets          nan                       # average number of cycles each access was blocked
system.cpu00.dcache.fast_writes                     0                       # number of fast writes performed
system.cpu00.dcache.cache_copies                    0                       # number of cache copies performed
system.cpu00.dcache.writebacks::writebacks         8922                       # number of writebacks
system.cpu00.dcache.writebacks::total            8922                       # number of writebacks
system.cpu00.dcache.ReadReq_mshr_hits::cpu00.data         3020                       # number of ReadReq MSHR hits
system.cpu00.dcache.ReadReq_mshr_hits::total         3020                       # number of ReadReq MSHR hits
system.cpu00.dcache.WriteReq_mshr_hits::cpu00.data        27260                       # number of WriteReq MSHR hits
system.cpu00.dcache.WriteReq_mshr_hits::total        27260                       # number of WriteReq MSHR hits
system.cpu00.dcache.LoadLockedReq_mshr_hits::cpu00.data          137                       # number of LoadLockedReq MSHR hits
system.cpu00.dcache.LoadLockedReq_mshr_hits::total          137                       # number of LoadLockedReq MSHR hits
system.cpu00.dcache.demand_mshr_hits::cpu00.data        30280                       # number of demand (read+write) MSHR hits
system.cpu00.dcache.demand_mshr_hits::total        30280                       # number of demand (read+write) MSHR hits
system.cpu00.dcache.overall_mshr_hits::cpu00.data        30280                       # number of overall MSHR hits
system.cpu00.dcache.overall_mshr_hits::total        30280                       # number of overall MSHR hits
system.cpu00.dcache.ReadReq_mshr_misses::cpu00.data         5839                       # number of ReadReq MSHR misses
system.cpu00.dcache.ReadReq_mshr_misses::total         5839                       # number of ReadReq MSHR misses
system.cpu00.dcache.WriteReq_mshr_misses::cpu00.data         6507                       # number of WriteReq MSHR misses
system.cpu00.dcache.WriteReq_mshr_misses::total         6507                       # number of WriteReq MSHR misses
system.cpu00.dcache.LoadLockedReq_mshr_misses::cpu00.data          117                       # number of LoadLockedReq MSHR misses
system.cpu00.dcache.LoadLockedReq_mshr_misses::total          117                       # number of LoadLockedReq MSHR misses
system.cpu00.dcache.StoreCondReq_mshr_misses::cpu00.data           23                       # number of StoreCondReq MSHR misses
system.cpu00.dcache.StoreCondReq_mshr_misses::total           23                       # number of StoreCondReq MSHR misses
system.cpu00.dcache.demand_mshr_misses::cpu00.data        12346                       # number of demand (read+write) MSHR misses
system.cpu00.dcache.demand_mshr_misses::total        12346                       # number of demand (read+write) MSHR misses
system.cpu00.dcache.overall_mshr_misses::cpu00.data        12346                       # number of overall MSHR misses
system.cpu00.dcache.overall_mshr_misses::total        12346                       # number of overall MSHR misses
system.cpu00.dcache.ReadReq_mshr_miss_latency::cpu00.data    236948720                       # number of ReadReq MSHR miss cycles
system.cpu00.dcache.ReadReq_mshr_miss_latency::total    236948720                       # number of ReadReq MSHR miss cycles
system.cpu00.dcache.WriteReq_mshr_miss_latency::cpu00.data   1146283763                       # number of WriteReq MSHR miss cycles
system.cpu00.dcache.WriteReq_mshr_miss_latency::total   1146283763                       # number of WriteReq MSHR miss cycles
system.cpu00.dcache.LoadLockedReq_mshr_miss_latency::cpu00.data      1116280                       # number of LoadLockedReq MSHR miss cycles
system.cpu00.dcache.LoadLockedReq_mshr_miss_latency::total      1116280                       # number of LoadLockedReq MSHR miss cycles
system.cpu00.dcache.StoreCondReq_mshr_miss_latency::cpu00.data       451940                       # number of StoreCondReq MSHR miss cycles
system.cpu00.dcache.StoreCondReq_mshr_miss_latency::total       451940                       # number of StoreCondReq MSHR miss cycles
system.cpu00.dcache.demand_mshr_miss_latency::cpu00.data   1383232483                       # number of demand (read+write) MSHR miss cycles
system.cpu00.dcache.demand_mshr_miss_latency::total   1383232483                       # number of demand (read+write) MSHR miss cycles
system.cpu00.dcache.overall_mshr_miss_latency::cpu00.data   1383232483                       # number of overall MSHR miss cycles
system.cpu00.dcache.overall_mshr_miss_latency::total   1383232483                       # number of overall MSHR miss cycles
system.cpu00.dcache.ReadReq_mshr_miss_rate::cpu00.data     0.038753                       # mshr miss rate for ReadReq accesses
system.cpu00.dcache.ReadReq_mshr_miss_rate::total     0.038753                       # mshr miss rate for ReadReq accesses
system.cpu00.dcache.WriteReq_mshr_miss_rate::cpu00.data     0.054958                       # mshr miss rate for WriteReq accesses
system.cpu00.dcache.WriteReq_mshr_miss_rate::total     0.054958                       # mshr miss rate for WriteReq accesses
system.cpu00.dcache.LoadLockedReq_mshr_miss_rate::cpu00.data     0.098568                       # mshr miss rate for LoadLockedReq accesses
system.cpu00.dcache.LoadLockedReq_mshr_miss_rate::total     0.098568                       # mshr miss rate for LoadLockedReq accesses
system.cpu00.dcache.StoreCondReq_mshr_miss_rate::cpu00.data     0.020499                       # mshr miss rate for StoreCondReq accesses
system.cpu00.dcache.StoreCondReq_mshr_miss_rate::total     0.020499                       # mshr miss rate for StoreCondReq accesses
system.cpu00.dcache.demand_mshr_miss_rate::cpu00.data     0.045884                       # mshr miss rate for demand accesses
system.cpu00.dcache.demand_mshr_miss_rate::total     0.045884                       # mshr miss rate for demand accesses
system.cpu00.dcache.overall_mshr_miss_rate::cpu00.data     0.045884                       # mshr miss rate for overall accesses
system.cpu00.dcache.overall_mshr_miss_rate::total     0.045884                       # mshr miss rate for overall accesses
system.cpu00.dcache.ReadReq_avg_mshr_miss_latency::cpu00.data 40580.359651                       # average ReadReq mshr miss latency
system.cpu00.dcache.ReadReq_avg_mshr_miss_latency::total 40580.359651                       # average ReadReq mshr miss latency
system.cpu00.dcache.WriteReq_avg_mshr_miss_latency::cpu00.data 176161.635623                       # average WriteReq mshr miss latency
system.cpu00.dcache.WriteReq_avg_mshr_miss_latency::total 176161.635623                       # average WriteReq mshr miss latency
[...]
system.tol2bus.pkt_count_system.cpu06.dcache.mem_side::system.l2.cpu_side         4300                       # Packet count per connected master and slave (bytes)
system.tol2bus.pkt_count_system.cpu07.icache.mem_side::system.l2.cpu_side         1100                       # Packet count per connected master and slave (bytes)
system.tol2bus.pkt_count_system.cpu07.dcache.mem_side::system.l2.cpu_side         1177                       # Packet count per connected master and slave (bytes)
system.tol2bus.pkt_count_system.cpu08.icache.mem_side::system.l2.cpu_side         2746                       # Packet count per connected master and slave (bytes)
system.tol2bus.pkt_count_system.cpu08.dcache.mem_side::system.l2.cpu_side         4074                       # Packet count per connected master and slave (bytes)
system.tol2bus.pkt_count_system.cpu09.icache.mem_side::system.l2.cpu_side         3239                       # Packet count per connected master and slave (bytes)
system.tol2bus.pkt_count_system.cpu09.dcache.mem_side::system.l2.cpu_side         3987                       # Packet count per connected master and slave (bytes)
system.tol2bus.pkt_count_system.cpu10.icache.mem_side::system.l2.cpu_side         3408                       # Packet count per connected master and slave (bytes)
system.tol2bus.pkt_count_system.cpu10.dcache.mem_side::system.l2.cpu_side         4676                       # Packet count per connected master and slave (bytes)
system.tol2bus.pkt_count_system.cpu11.icache.mem_side::system.l2.cpu_side         2811                       # Packet count per connected master and slave (bytes)
system.tol2bus.pkt_count_system.cpu11.dcache.mem_side::system.l2.cpu_side         2947                       # Packet count per connected master and slave (bytes)
system.tol2bus.pkt_count_system.cpu12.icache.mem_side::system.l2.cpu_side         2707                       # Packet count per connected master and slave (bytes)
system.tol2bus.pkt_count_system.cpu12.dcache.mem_side::system.l2.cpu_side         2796                       # Packet count per connected master and slave (bytes)
system.tol2bus.pkt_count_system.cpu13.icache.mem_side::system.l2.cpu_side         3655                       # Packet count per connected master and slave (bytes)
system.tol2bus.pkt_count_system.cpu13.dcache.mem_side::system.l2.cpu_side         4057                       # Packet count per connected master and slave (bytes)
system.tol2bus.pkt_count_system.cpu14.icache.mem_side::system.l2.cpu_side         1221                       # Packet count per connected master and slave (bytes)
system.tol2bus.pkt_count_system.cpu14.dcache.mem_side::system.l2.cpu_side         1205                       # Packet count per connected master and slave (bytes)
system.tol2bus.pkt_count_system.cpu15.icache.mem_side::system.l2.cpu_side         2557                       # Packet count per connected master and slave (bytes)
system.tol2bus.pkt_count_system.cpu15.dcache.mem_side::system.l2.cpu_side         3390                       # Packet count per connected master and slave (bytes)
system.tol2bus.pkt_count::total                137032                       # Packet count per connected master and slave (bytes)
system.tol2bus.pkt_size_system.cpu00.icache.mem_side::system.l2.cpu_side       979840                       # Cumulative packet size per connected master and slave (bytes)
system.tol2bus.pkt_size_system.cpu00.dcache.mem_side::system.l2.cpu_side      1346560                       # Cumulative packet size per connected master and slave (bytes)
system.tol2bus.pkt_size_system.cpu01.icache.mem_side::system.l2.cpu_side        63808                       # Cumulative packet size per connected master and slave (bytes)
system.tol2bus.pkt_size_system.cpu01.dcache.mem_side::system.l2.cpu_side        39296                       # Cumulative packet size per connected master and slave (bytes)
system.tol2bus.pkt_size_system.cpu02.icache.mem_side::system.l2.cpu_side       128576                       # Cumulative packet size per connected master and slave (bytes)
system.tol2bus.pkt_size_system.cpu02.dcache.mem_side::system.l2.cpu_side        79360                       # Cumulative packet size per connected master and slave (bytes)
system.tol2bus.pkt_size_system.cpu03.icache.mem_side::system.l2.cpu_side        34944                       # Cumulative packet size per connected master and slave (bytes)
system.tol2bus.pkt_size_system.cpu03.dcache.mem_side::system.l2.cpu_side        32640                       # Cumulative packet size per connected master and slave (bytes)
system.tol2bus.pkt_size_system.cpu04.icache.mem_side::system.l2.cpu_side        31296                       # Cumulative packet size per connected master and slave (bytes)
system.tol2bus.pkt_size_system.cpu04.dcache.mem_side::system.l2.cpu_side        28928                       # Cumulative packet size per connected master and slave (bytes)
system.tol2bus.pkt_size_system.cpu05.icache.mem_side::system.l2.cpu_side        39808                       # Cumulative packet size per connected master and slave (bytes)
system.tol2bus.pkt_size_system.cpu05.dcache.mem_side::system.l2.cpu_side        25408                       # Cumulative packet size per connected master and slave (bytes)
system.tol2bus.pkt_size_system.cpu06.icache.mem_side::system.l2.cpu_side       122880                       # Cumulative packet size per connected master and slave (bytes)
system.tol2bus.pkt_size_system.cpu06.dcache.mem_side::system.l2.cpu_side        76864                       # Cumulative packet size per connected master and slave (bytes)
system.tol2bus.pkt_size_system.cpu07.icache.mem_side::system.l2.cpu_side        38400                       # Cumulative packet size per connected master and slave (bytes)
system.tol2bus.pkt_size_system.cpu07.dcache.mem_side::system.l2.cpu_side        31360                       # Cumulative packet size per connected master and slave (bytes)
system.tol2bus.pkt_size_system.cpu08.icache.mem_side::system.l2.cpu_side       106752                       # Cumulative packet size per connected master and slave (bytes)
system.tol2bus.pkt_size_system.cpu08.dcache.mem_side::system.l2.cpu_side        71680                       # Cumulative packet size per connected master and slave (bytes)
system.tol2bus.pkt_size_system.cpu09.icache.mem_side::system.l2.cpu_side       127616                       # Cumulative packet size per connected master and slave (bytes)
system.tol2bus.pkt_size_system.cpu09.dcache.mem_side::system.l2.cpu_side        67584                       # Cumulative packet size per connected master and slave (bytes)
system.tol2bus.pkt_size_system.cpu10.icache.mem_side::system.l2.cpu_side       135424                       # Cumulative packet size per connected master and slave (bytes)
system.tol2bus.pkt_size_system.cpu10.dcache.mem_side::system.l2.cpu_side        81216                       # Cumulative packet size per connected master and slave (bytes)
system.tol2bus.pkt_size_system.cpu11.icache.mem_side::system.l2.cpu_side       109632                       # Cumulative packet size per connected master and slave (bytes)
system.tol2bus.pkt_size_system.cpu11.dcache.mem_side::system.l2.cpu_side        53376                       # Cumulative packet size per connected master and slave (bytes)
system.tol2bus.pkt_size_system.cpu12.icache.mem_side::system.l2.cpu_side       105216                       # Cumulative packet size per connected master and slave (bytes)
system.tol2bus.pkt_size_system.cpu12.dcache.mem_side::system.l2.cpu_side        56960                       # Cumulative packet size per connected master and slave (bytes)
system.tol2bus.pkt_size_system.cpu13.icache.mem_side::system.l2.cpu_side       145536                       # Cumulative packet size per connected master and slave (bytes)
system.tol2bus.pkt_size_system.cpu13.dcache.mem_side::system.l2.cpu_side        72448                       # Cumulative packet size per connected master and slave (bytes)
system.tol2bus.pkt_size_system.cpu14.icache.mem_side::system.l2.cpu_side        42944                       # Cumulative packet size per connected master and slave (bytes)
system.tol2bus.pkt_size_system.cpu14.dcache.mem_side::system.l2.cpu_side        32320                       # Cumulative packet size per connected master and slave (bytes)
system.tol2bus.pkt_size_system.cpu15.icache.mem_side::system.l2.cpu_side        98816                       # Cumulative packet size per connected master and slave (bytes)
system.tol2bus.pkt_size_system.cpu15.dcache.mem_side::system.l2.cpu_side        62592                       # Cumulative packet size per connected master and slave (bytes)
system.tol2bus.pkt_size::total                4470080                       # Cumulative packet size per connected master and slave (bytes)
system.tol2bus.snoops                           12530                       # Total snoops (count)
system.tol2bus.snoop_fanout::samples            56700                       # Request fanout histogram
system.tol2bus.snoop_fanout::mean            2.379471                       # Request fanout histogram
system.tol2bus.snoop_fanout::stdev           3.791692                       # Request fanout histogram
system.tol2bus.snoop_fanout::underflows             0      0.00%      0.00% # Request fanout histogram
system.tol2bus.snoop_fanout::0                  26767     47.21%     47.21% # Request fanout histogram
system.tol2bus.snoop_fanout::1                  12125     21.38%     68.59% # Request fanout histogram
system.tol2bus.snoop_fanout::2                   3402      6.00%     74.59% # Request fanout histogram
system.tol2bus.snoop_fanout::3                   1543      2.72%     77.31% # Request fanout histogram
system.tol2bus.snoop_fanout::4                   1346      2.37%     79.69% # Request fanout histogram
system.tol2bus.snoop_fanout::5                   1292      2.28%     81.97% # Request fanout histogram
system.tol2bus.snoop_fanout::6                   1315      2.32%     84.29% # Request fanout histogram
system.tol2bus.snoop_fanout::7                   1342      2.37%     86.65% # Request fanout histogram
system.tol2bus.snoop_fanout::8                   1312      2.31%     88.97% # Request fanout histogram
system.tol2bus.snoop_fanout::9                   1236      2.18%     91.15% # Request fanout histogram
system.tol2bus.snoop_fanout::10                  1143      2.02%     93.16% # Request fanout histogram
system.tol2bus.snoop_fanout::11                  1076      1.90%     95.06% # Request fanout histogram
system.tol2bus.snoop_fanout::12                   789      1.39%     96.45% # Request fanout histogram
system.tol2bus.snoop_fanout::13                   774      1.37%     97.82% # Request fanout histogram
system.tol2bus.snoop_fanout::14                   758      1.34%     99.15% # Request fanout histogram
system.tol2bus.snoop_fanout::15                   478      0.84%    100.00% # Request fanout histogram
system.tol2bus.snoop_fanout::16                     2      0.00%    100.00% # Request fanout histogram
system.tol2bus.snoop_fanout::17                     0      0.00%    100.00% # Request fanout histogram
system.tol2bus.snoop_fanout::18                     0      0.00%    100.00% # Request fanout histogram
system.tol2bus.snoop_fanout::19                     0      0.00%    100.00% # Request fanout histogram
system.tol2bus.snoop_fanout::20                     0      0.00%    100.00% # Request fanout histogram
system.tol2bus.snoop_fanout::21                     0      0.00%    100.00% # Request fanout histogram
system.tol2bus.snoop_fanout::22                     0      0.00%    100.00% # Request fanout histogram
system.tol2bus.snoop_fanout::23                     0      0.00%    100.00% # Request fanout histogram
system.tol2bus.snoop_fanout::24                     0      0.00%    100.00% # Request fanout histogram
system.tol2bus.snoop_fanout::25                     0      0.00%    100.00% # Request fanout histogram
system.tol2bus.snoop_fanout::26                     0      0.00%    100.00% # Request fanout histogram
system.tol2bus.snoop_fanout::27                     0      0.00%    100.00% # Request fanout histogram
system.tol2bus.snoop_fanout::28                     0      0.00%    100.00% # Request fanout histogram
system.tol2bus.snoop_fanout::29                     0      0.00%    100.00% # Request fanout histogram
system.tol2bus.snoop_fanout::30                     0      0.00%    100.00% # Request fanout histogram
system.tol2bus.snoop_fanout::31                     0      0.00%    100.00% # Request fanout histogram
system.tol2bus.snoop_fanout::32                     0      0.00%    100.00% # Request fanout histogram
system.tol2bus.snoop_fanout::overflows              0      0.00%    100.00% # Request fanout histogram
system.tol2bus.snoop_fanout::min_value              0                       # Request fanout histogram
system.tol2bus.snoop_fanout::max_value             16                       # Request fanout histogram
system.tol2bus.snoop_fanout::total              56700                       # Request fanout histogram
system.tol2bus.reqLayer0.occupancy          174929373                       # Layer occupancy (ticks)
system.tol2bus.reqLayer0.utilization             13.4                       # Layer utilization (%)
system.tol2bus.respLayer0.occupancy          28348148                       # Layer occupancy (ticks)
system.tol2bus.respLayer0.utilization             2.2                       # Layer utilization (%)
system.tol2bus.respLayer1.occupancy          44268954                       # Layer occupancy (ticks)
system.tol2bus.respLayer1.utilization             3.4                       # Layer utilization (%)
system.tol2bus.respLayer2.occupancy           2660804                       # Layer occupancy (ticks)
system.tol2bus.respLayer2.utilization             0.2                       # Layer utilization (%)
system.tol2bus.respLayer3.occupancy           2770483                       # Layer occupancy (ticks)
system.tol2bus.respLayer3.utilization             0.2                       # Layer utilization (%)
system.tol2bus.respLayer4.occupancy           4497899                       # Layer occupancy (ticks)
system.tol2bus.respLayer4.utilization             0.3                       # Layer utilization (%)
system.tol2bus.respLayer5.occupancy           7247458                       # Layer occupancy (ticks)
system.tol2bus.respLayer5.utilization             0.6                       # Layer utilization (%)
system.tol2bus.respLayer6.occupancy           1709194                       # Layer occupancy (ticks)
system.tol2bus.respLayer6.utilization             0.1                       # Layer utilization (%)
system.tol2bus.respLayer7.occupancy           1723942                       # Layer occupancy (ticks)
system.tol2bus.respLayer7.utilization             0.1                       # Layer utilization (%)
system.tol2bus.respLayer8.occupancy           1564161                       # Layer occupancy (ticks)
system.tol2bus.respLayer8.utilization             0.1                       # Layer utilization (%)
system.tol2bus.respLayer9.occupancy           1663768                       # Layer occupancy (ticks)
system.tol2bus.respLayer9.utilization             0.1                       # Layer utilization (%)
system.tol2bus.respLayer10.occupancy          1881053                       # Layer occupancy (ticks)
system.tol2bus.respLayer10.utilization            0.1                       # Layer utilization (%)
system.tol2bus.respLayer11.occupancy          1697955                       # Layer occupancy (ticks)
system.tol2bus.respLayer11.utilization            0.1                       # Layer utilization (%)
system.tol2bus.respLayer12.occupancy          4327937                       # Layer occupancy (ticks)
system.tol2bus.respLayer12.utilization            0.3                       # Layer utilization (%)
system.tol2bus.respLayer13.occupancy          6968949                       # Layer occupancy (ticks)
system.tol2bus.respLayer13.utilization            0.5                       # Layer utilization (%)
system.tol2bus.respLayer14.occupancy          1839033                       # Layer occupancy (ticks)
system.tol2bus.respLayer14.utilization            0.1                       # Layer utilization (%)
system.tol2bus.respLayer15.occupancy          1822075                       # Layer occupancy (ticks)
system.tol2bus.respLayer15.utilization            0.1                       # Layer utilization (%)
system.tol2bus.respLayer16.occupancy          3894349                       # Layer occupancy (ticks)
system.tol2bus.respLayer16.utilization            0.3                       # Layer utilization (%)
system.tol2bus.respLayer17.occupancy          6489246                       # Layer occupancy (ticks)
system.tol2bus.respLayer17.utilization            0.5                       # Layer utilization (%)
system.tol2bus.respLayer18.occupancy          4496694                       # Layer occupancy (ticks)
system.tol2bus.respLayer18.utilization            0.3                       # Layer utilization (%)
system.tol2bus.respLayer19.occupancy          6441507                       # Layer occupancy (ticks)
system.tol2bus.respLayer19.utilization            0.5                       # Layer utilization (%)
system.tol2bus.respLayer20.occupancy          4656193                       # Layer occupancy (ticks)
system.tol2bus.respLayer20.utilization            0.4                       # Layer utilization (%)
system.tol2bus.respLayer21.occupancy          7638923                       # Layer occupancy (ticks)
system.tol2bus.respLayer21.utilization            0.6                       # Layer utilization (%)
system.tol2bus.respLayer22.occupancy          3981867                       # Layer occupancy (ticks)
system.tol2bus.respLayer22.utilization            0.3                       # Layer utilization (%)
system.tol2bus.respLayer23.occupancy          4807214                       # Layer occupancy (ticks)
system.tol2bus.respLayer23.utilization            0.4                       # Layer utilization (%)
system.tol2bus.respLayer24.occupancy          3826642                       # Layer occupancy (ticks)
system.tol2bus.respLayer24.utilization            0.3                       # Layer utilization (%)
system.tol2bus.respLayer25.occupancy          4442289                       # Layer occupancy (ticks)
system.tol2bus.respLayer25.utilization            0.3                       # Layer utilization (%)
system.tol2bus.respLayer26.occupancy          5009523                       # Layer occupancy (ticks)
system.tol2bus.respLayer26.utilization            0.4                       # Layer utilization (%)
system.tol2bus.respLayer27.occupancy          6678557                       # Layer occupancy (ticks)
system.tol2bus.respLayer27.utilization            0.5                       # Layer utilization (%)
system.tol2bus.respLayer28.occupancy          2010728                       # Layer occupancy (ticks)
system.tol2bus.respLayer28.utilization            0.2                       # Layer utilization (%)
system.tol2bus.respLayer29.occupancy          1800215                       # Layer occupancy (ticks)
system.tol2bus.respLayer29.utilization            0.1                       # Layer utilization (%)
system.tol2bus.respLayer30.occupancy          3657844                       # Layer occupancy (ticks)
system.tol2bus.respLayer30.utilization            0.3                       # Layer utilization (%)
system.tol2bus.respLayer31.occupancy          5399422                       # Layer occupancy (ticks)
system.tol2bus.respLayer31.utilization            0.4                       # Layer utilization (%)

---------- End Simulation Statistics   ----------
