
---------- Begin Simulation Statistics ----------
sim_seconds                                  0.001256                       # Number of seconds simulated
sim_ticks                                  1255872697                       # Number of ticks simulated
final_tick                                 1255872697                       # Number of ticks from beginning of simulation (restored from checkpoints and never reset)
sim_freq                                 1000000000000                       # Frequency of simulated ticks
host_inst_rate                                 223665                       # Simulator instruction rate (inst/s)
host_op_rate                                   223665                       # Simulator op (including micro ops) rate (op/s)
host_tick_rate                              123875810                       # Simulator tick rate (ticks/s)
host_mem_usage                                 694700                       # Number of bytes of host memory used
host_seconds                                    10.14                       # Real time elapsed on the host
sim_insts                                     2267544                       # Number of instructions simulated
sim_ops                                       2267544                       # Number of ops (including micro ops) simulated
system.voltage_domain.voltage                       1                       # Voltage in Volts
system.clk_domain.clock                          1000                       # Clock period in ticks
system.mem_ctrls.bytes_read::cpu00.inst        122624                       # Number of bytes read from this memory
system.mem_ctrls.bytes_read::cpu00.data        378176                       # Number of bytes read from this memory
system.mem_ctrls.bytes_read::cpu01.inst         11328                       # Number of bytes read from this memory
system.mem_ctrls.bytes_read::cpu01.data          6464                       # Number of bytes read from this memory
system.mem_ctrls.bytes_read::cpu02.inst          1728                       # Number of bytes read from this memory
system.mem_ctrls.bytes_read::cpu02.data          6720                       # Number of bytes read from this memory
system.mem_ctrls.bytes_read::cpu03.inst          2752                       # Number of bytes read from this memory
system.mem_ctrls.bytes_read::cpu03.data          6016                       # Number of bytes read from this memory
system.mem_ctrls.bytes_read::cpu04.inst           576                       # Number of bytes read from this memory
system.mem_ctrls.bytes_read::cpu04.data          6464                       # Number of bytes read from this memory
system.mem_ctrls.bytes_read::cpu05.inst           512                       # Number of bytes read from this memory
system.mem_ctrls.bytes_read::cpu05.data          5120                       # Number of bytes read from this memory
system.mem_ctrls.bytes_read::cpu06.inst           192                       # Number of bytes read from this memory
system.mem_ctrls.bytes_read::cpu06.data          5504                       # Number of bytes read from this memory
system.mem_ctrls.bytes_read::cpu07.inst          2880                       # Number of bytes read from this memory
system.mem_ctrls.bytes_read::cpu07.data          6080                       # Number of bytes read from this memory
system.mem_ctrls.bytes_read::cpu08.inst           256                       # Number of bytes read from this memory
system.mem_ctrls.bytes_read::cpu08.data          4480                       # Number of bytes read from this memory
system.mem_ctrls.bytes_read::cpu09.inst          1472                       # Number of bytes read from this memory
system.mem_ctrls.bytes_read::cpu09.data          5952                       # Number of bytes read from this memory
system.mem_ctrls.bytes_read::cpu10.inst          3648                       # Number of bytes read from this memory
system.mem_ctrls.bytes_read::cpu10.data          5440                       # Number of bytes read from this memory
system.mem_ctrls.bytes_read::cpu11.inst          1152                       # Number of bytes read from this memory
system.mem_ctrls.bytes_read::cpu11.data          5440                       # Number of bytes read from this memory
system.mem_ctrls.bytes_read::cpu12.inst           192                       # Number of bytes read from this memory
system.mem_ctrls.bytes_read::cpu12.data          5312                       # Number of bytes read from this memory
system.mem_ctrls.bytes_read::cpu13.inst          1216                       # Number of bytes read from this memory
system.mem_ctrls.bytes_read::cpu13.data          6528                       # Number of bytes read from this memory
system.mem_ctrls.bytes_read::cpu14.inst          2368                       # Number of bytes read from this memory
system.mem_ctrls.bytes_read::cpu14.data          6528                       # Number of bytes read from this memory
system.mem_ctrls.bytes_read::cpu15.inst          1472                       # Number of bytes read from this memory
system.mem_ctrls.bytes_read::cpu15.data          6272                       # Number of bytes read from this memory
system.mem_ctrls.bytes_read::total             620864                       # Number of bytes read from this memory
system.mem_ctrls.bytes_inst_read::cpu00.inst       122624                       # Number of instructions bytes read from this memory
system.mem_ctrls.bytes_inst_read::cpu01.inst        11328                       # Number of instructions bytes read from this memory
system.mem_ctrls.bytes_inst_read::cpu02.inst         1728                       # Number of instructions bytes read from this memory
system.mem_ctrls.bytes_inst_read::cpu03.inst         2752                       # Number of instructions bytes read from this memory
system.mem_ctrls.bytes_inst_read::cpu04.inst          576                       # Number of instructions bytes read from this memory
system.mem_ctrls.bytes_inst_read::cpu05.inst          512                       # Number of instructions bytes read from this memory
system.mem_ctrls.bytes_inst_read::cpu06.inst          192                       # Number of instructions bytes read from this memory
system.mem_ctrls.bytes_inst_read::cpu07.inst         2880                       # Number of instructions bytes read from this memory
system.mem_ctrls.bytes_inst_read::cpu08.inst          256                       # Number of instructions bytes read from this memory
system.mem_ctrls.bytes_inst_read::cpu09.inst         1472                       # Number of instructions bytes read from this memory
system.mem_ctrls.bytes_inst_read::cpu10.inst         3648                       # Number of instructions bytes read from this memory
system.mem_ctrls.bytes_inst_read::cpu11.inst         1152                       # Number of instructions bytes read from this memory
system.mem_ctrls.bytes_inst_read::cpu12.inst          192                       # Number of instructions bytes read from this memory
system.mem_ctrls.bytes_inst_read::cpu13.inst         1216                       # Number of instructions bytes read from this memory
system.mem_ctrls.bytes_inst_read::cpu14.inst         2368                       # Number of instructions bytes read from this memory
system.mem_ctrls.bytes_inst_read::cpu15.inst         1472                       # Number of instructions bytes read from this memory
system.mem_ctrls.bytes_inst_read::total        154368                       # Number of instructions bytes read from this memory
system.mem_ctrls.bytes_written::writebacks        75648                       # Number of bytes written to this memory
system.mem_ctrls.bytes_written::total           75648                       # Number of bytes written to this memory
system.mem_ctrls.num_reads::cpu00.inst           1916                       # Number of read requests responded to by this memory
system.mem_ctrls.num_reads::cpu00.data           5909                       # Number of read requests responded to by this memory
system.mem_ctrls.num_reads::cpu01.inst            177                       # Number of read requests responded to by this memory
system.mem_ctrls.num_reads::cpu01.data            101                       # Number of read requests responded to by this memory
system.mem_ctrls.num_reads::cpu02.inst             27                       # Number of read requests responded to by this memory
system.mem_ctrls.num_reads::cpu02.data            105                       # Number of read requests responded to by this memory
system.mem_ctrls.num_reads::cpu03.inst             43                       # Number of read requests responded to by this memory
system.mem_ctrls.num_reads::cpu03.data             94                       # Number of read requests responded to by this memory
system.mem_ctrls.num_reads::cpu04.inst              9                       # Number of read requests responded to by this memory
system.mem_ctrls.num_reads::cpu04.data            101                       # Number of read requests responded to by this memory
system.mem_ctrls.num_reads::cpu05.inst              8                       # Number of read requests responded to by this memory
system.mem_ctrls.num_reads::cpu05.data             80                       # Number of read requests responded to by this memory
system.mem_ctrls.num_reads::cpu06.inst              3                       # Number of read requests responded to by this memory
system.mem_ctrls.num_reads::cpu06.data             86                       # Number of read requests responded to by this memory
system.mem_ctrls.num_reads::cpu07.inst             45                       # Number of read requests responded to by this memory
system.mem_ctrls.num_reads::cpu07.data             95                       # Number of read requests responded to by this memory
system.mem_ctrls.num_reads::cpu08.inst              4                       # Number of read requests responded to by this memory
system.mem_ctrls.num_reads::cpu08.data             70                       # Number of read requests responded to by this memory
system.mem_ctrls.num_reads::cpu09.inst             23                       # Number of read requests responded to by this memory
system.mem_ctrls.num_reads::cpu09.data             93                       # Number of read requests responded to by this memory
system.mem_ctrls.num_reads::cpu10.inst             57                       # Number of read requests responded to by this memory
system.mem_ctrls.num_reads::cpu10.data             85                       # Number of read requests responded to by this memory
system.mem_ctrls.num_reads::cpu11.inst             18                       # Number of read requests responded to by this memory
system.mem_ctrls.num_reads::cpu11.data             85                       # Number of read requests responded to by this memory
system.mem_ctrls.num_reads::cpu12.inst              3                       # Number of read requests responded to by this memory
system.mem_ctrls.num_reads::cpu12.data             83                       # Number of read requests responded to by this memory
system.mem_ctrls.num_reads::cpu13.inst             19                       # Number of read requests responded to by this memory
system.mem_ctrls.num_reads::cpu13.data            102                       # Number of read requests responded to by this memory
system.mem_ctrls.num_reads::cpu14.inst             37                       # Number of read requests responded to by this memory
system.mem_ctrls.num_reads::cpu14.data            102                       # Number of read requests responded to by this memory
system.mem_ctrls.num_reads::cpu15.inst             23                       # Number of read requests responded to by this memory
system.mem_ctrls.num_reads::cpu15.data             98                       # Number of read requests responded to by this memory
system.mem_ctrls.num_reads::total                9701                       # Number of read requests responded to by this memory
system.mem_ctrls.num_writes::writebacks          1182                       # Number of write requests responded to by this memory
system.mem_ctrls.num_writes::total               1182                       # Number of write requests responded to by this memory
system.mem_ctrls.bw_read::cpu00.inst         97640470                       # Total read bandwidth from this memory (bytes/s)
system.mem_ctrls.bw_read::cpu00.data        301126062                       # Total read bandwidth from this memory (bytes/s)
system.mem_ctrls.bw_read::cpu01.inst          9020023                       # Total read bandwidth from this memory (bytes/s)
system.mem_ctrls.bw_read::cpu01.data          5147018                       # Total read bandwidth from this memory (bytes/s)
system.mem_ctrls.bw_read::cpu02.inst          1375936                       # Total read bandwidth from this memory (bytes/s)
system.mem_ctrls.bw_read::cpu02.data          5350861                       # Total read bandwidth from this memory (bytes/s)
system.mem_ctrls.bw_read::cpu03.inst          2191305                       # Total read bandwidth from this memory (bytes/s)
system.mem_ctrls.bw_read::cpu03.data          4790294                       # Total read bandwidth from this memory (bytes/s)
system.mem_ctrls.bw_read::cpu04.inst           458645                       # Total read bandwidth from this memory (bytes/s)
system.mem_ctrls.bw_read::cpu04.data          5147018                       # Total read bandwidth from this memory (bytes/s)
system.mem_ctrls.bw_read::cpu05.inst           407685                       # Total read bandwidth from this memory (bytes/s)
system.mem_ctrls.bw_read::cpu05.data          4076846                       # Total read bandwidth from this memory (bytes/s)
system.mem_ctrls.bw_read::cpu06.inst           152882                       # Total read bandwidth from this memory (bytes/s)
system.mem_ctrls.bw_read::cpu06.data          4382610                       # Total read bandwidth from this memory (bytes/s)
system.mem_ctrls.bw_read::cpu07.inst          2293226                       # Total read bandwidth from this memory (bytes/s)
system.mem_ctrls.bw_read::cpu07.data          4841255                       # Total read bandwidth from this memory (bytes/s)
system.mem_ctrls.bw_read::cpu08.inst           203842                       # Total read bandwidth from this memory (bytes/s)
system.mem_ctrls.bw_read::cpu08.data          3567241                       # Total read bandwidth from this memory (bytes/s)
system.mem_ctrls.bw_read::cpu09.inst          1172093                       # Total read bandwidth from this memory (bytes/s)
system.mem_ctrls.bw_read::cpu09.data          4739334                       # Total read bandwidth from this memory (bytes/s)
system.mem_ctrls.bw_read::cpu10.inst          2904753                       # Total read bandwidth from this memory (bytes/s)
system.mem_ctrls.bw_read::cpu10.data          4331649                       # Total read bandwidth from this memory (bytes/s)
system.mem_ctrls.bw_read::cpu11.inst           917290                       # Total read bandwidth from this memory (bytes/s)
system.mem_ctrls.bw_read::cpu11.data          4331649                       # Total read bandwidth from this memory (bytes/s)
system.mem_ctrls.bw_read::cpu12.inst           152882                       # Total read bandwidth from this memory (bytes/s)
system.mem_ctrls.bw_read::cpu12.data          4229728                       # Total read bandwidth from this memory (bytes/s)
system.mem_ctrls.bw_read::cpu13.inst           968251                       # Total read bandwidth from this memory (bytes/s)
system.mem_ctrls.bw_read::cpu13.data          5197979                       # Total read bandwidth from this memory (bytes/s)
system.mem_ctrls.bw_read::cpu14.inst          1885541                       # Total read bandwidth from this memory (bytes/s)
system.mem_ctrls.bw_read::cpu14.data          5197979                       # Total read bandwidth from this memory (bytes/s)
system.mem_ctrls.bw_read::cpu15.inst          1172093                       # Total read bandwidth from this memory (bytes/s)
system.mem_ctrls.bw_read::cpu15.data          4994137                       # Total read bandwidth from this memory (bytes/s)
system.mem_ctrls.bw_read::total             494368579                       # Total read bandwidth from this memory (bytes/s)
system.mem_ctrls.bw_inst_read::cpu00.inst     97640470                       # Instruction read bandwidth from this memory (bytes/s)
system.mem_ctrls.bw_inst_read::cpu01.inst      9020023                       # Instruction read bandwidth from this memory (bytes/s)
system.mem_ctrls.bw_inst_read::cpu02.inst      1375936                       # Instruction read bandwidth from this memory (bytes/s)
system.mem_ctrls.bw_inst_read::cpu03.inst      2191305                       # Instruction read bandwidth from this memory (bytes/s)
system.mem_ctrls.bw_inst_read::cpu04.inst       458645                       # Instruction read bandwidth from this memory (bytes/s)
system.mem_ctrls.bw_inst_read::cpu05.inst       407685                       # Instruction read bandwidth from this memory (bytes/s)
system.mem_ctrls.bw_inst_read::cpu06.inst       152882                       # Instruction read bandwidth from this memory (bytes/s)
system.mem_ctrls.bw_inst_read::cpu07.inst      2293226                       # Instruction read bandwidth from this memory (bytes/s)
system.mem_ctrls.bw_inst_read::cpu08.inst       203842                       # Instruction read bandwidth from this memory (bytes/s)
system.mem_ctrls.bw_inst_read::cpu09.inst      1172093                       # Instruction read bandwidth from this memory (bytes/s)
system.mem_ctrls.bw_inst_read::cpu10.inst      2904753                       # Instruction read bandwidth from this memory (bytes/s)
system.mem_ctrls.bw_inst_read::cpu11.inst       917290                       # Instruction read bandwidth from this memory (bytes/s)
system.mem_ctrls.bw_inst_read::cpu12.inst       152882                       # Instruction read bandwidth from this memory (bytes/s)
system.mem_ctrls.bw_inst_read::cpu13.inst       968251                       # Instruction read bandwidth from this memory (bytes/s)
system.mem_ctrls.bw_inst_read::cpu14.inst      1885541                       # Instruction read bandwidth from this memory (bytes/s)
system.mem_ctrls.bw_inst_read::cpu15.inst      1172093                       # Instruction read bandwidth from this memory (bytes/s)
system.mem_ctrls.bw_inst_read::total        122916917                       # Instruction read bandwidth from this memory (bytes/s)
system.mem_ctrls.bw_write::writebacks        60235405                       # Write bandwidth from this memory (bytes/s)
system.mem_ctrls.bw_write::total             60235405                       # Write bandwidth from this memory (bytes/s)
system.mem_ctrls.bw_total::writebacks        60235405                       # Total bandwidth to/from this memory (bytes/s)
system.mem_ctrls.bw_total::cpu00.inst        97640470                       # Total bandwidth to/from this memory (bytes/s)
system.mem_ctrls.bw_total::cpu00.data       301126062                       # Total bandwidth to/from this memory (bytes/s)
system.mem_ctrls.bw_total::cpu01.inst         9020023                       # Total bandwidth to/from this memory (bytes/s)
system.mem_ctrls.bw_total::cpu01.data         5147018                       # Total bandwidth to/from this memory (bytes/s)
system.mem_ctrls.bw_total::cpu02.inst         1375936                       # Total bandwidth to/from this memory (bytes/s)
system.mem_ctrls.bw_total::cpu02.data         5350861                       # Total bandwidth to/from this memory (bytes/s)
system.mem_ctrls.bw_total::cpu03.inst         2191305                       # Total bandwidth to/from this memory (bytes/s)
system.mem_ctrls.bw_total::cpu03.data         4790294                       # Total bandwidth to/from this memory (bytes/s)
system.mem_ctrls.bw_total::cpu04.inst          458645                       # Total bandwidth to/from this memory (bytes/s)
system.mem_ctrls.bw_total::cpu04.data         5147018                       # Total bandwidth to/from this memory (bytes/s)
system.mem_ctrls.bw_total::cpu05.inst          407685                       # Total bandwidth to/from this memory (bytes/s)
system.mem_ctrls.bw_total::cpu05.data         4076846                       # Total bandwidth to/from this memory (bytes/s)
system.mem_ctrls.bw_total::cpu06.inst          152882                       # Total bandwidth to/from this memory (bytes/s)
system.mem_ctrls.bw_total::cpu06.data         4382610                       # Total bandwidth to/from this memory (bytes/s)
system.mem_ctrls.bw_total::cpu07.inst         2293226                       # Total bandwidth to/from this memory (bytes/s)
system.mem_ctrls.bw_total::cpu07.data         4841255                       # Total bandwidth to/from this memory (bytes/s)
system.mem_ctrls.bw_total::cpu08.inst          203842                       # Total bandwidth to/from this memory (bytes/s)
system.mem_ctrls.bw_total::cpu08.data         3567241                       # Total bandwidth to/from this memory (bytes/s)
system.mem_ctrls.bw_total::cpu09.inst         1172093                       # Total bandwidth to/from this memory (bytes/s)
system.mem_ctrls.bw_total::cpu09.data         4739334                       # Total bandwidth to/from this memory (bytes/s)
system.mem_ctrls.bw_total::cpu10.inst         2904753                       # Total bandwidth to/from this memory (bytes/s)
system.mem_ctrls.bw_total::cpu10.data         4331649                       # Total bandwidth to/from this memory (bytes/s)
system.mem_ctrls.bw_total::cpu11.inst          917290                       # Total bandwidth to/from this memory (bytes/s)
system.mem_ctrls.bw_total::cpu11.data         4331649                       # Total bandwidth to/from this memory (bytes/s)
system.mem_ctrls.bw_total::cpu12.inst          152882                       # Total bandwidth to/from this memory (bytes/s)
system.mem_ctrls.bw_total::cpu12.data         4229728                       # Total bandwidth to/from this memory (bytes/s)
system.mem_ctrls.bw_total::cpu13.inst          968251                       # Total bandwidth to/from this memory (bytes/s)
system.mem_ctrls.bw_total::cpu13.data         5197979                       # Total bandwidth to/from this memory (bytes/s)
system.mem_ctrls.bw_total::cpu14.inst         1885541                       # Total bandwidth to/from this memory (bytes/s)
system.mem_ctrls.bw_total::cpu14.data         5197979                       # Total bandwidth to/from this memory (bytes/s)
system.mem_ctrls.bw_total::cpu15.inst         1172093                       # Total bandwidth to/from this memory (bytes/s)
system.mem_ctrls.bw_total::cpu15.data         4994137                       # Total bandwidth to/from this memory (bytes/s)
system.mem_ctrls.bw_total::total            554603983                       # Total bandwidth to/from this memory (bytes/s)
system.cpu00.branchPred.lookups                132470                       # Number of BP lookups
system.cpu00.branchPred.condPredicted           73770                       # Number of conditional branches predicted
system.cpu00.branchPred.condIncorrect            5674                       # Number of conditional branches incorrect
system.cpu00.branchPred.BTBLookups              87885                       # Number of BTB lookups
system.cpu00.branchPred.BTBHits                 66374                       # Number of BTB hits
system.cpu00.branchPred.BTBCorrect                  0                       # Number of correct BTB predictions (this stat may not work properly.
system.cpu00.branchPred.BTBHitPct           75.523696                       # BTB Hit Percentage
system.cpu00.branchPred.usedRAS                 26422                       # Number of times the RAS was used to get a target.
system.cpu00.branchPred.RASInCorrect               90                       # Number of incorrect RAS predictions.
system.cpu00.branchPred.indirectLookups          3667                       # Number of indirect predictor lookups.
system.cpu00.branchPred.indirectHits             2895                       # Number of indirect target hits.
system.cpu00.branchPred.indirectMisses            772                       # Number of indirect misses.
system.cpu00.branchPredindirectMispredicted          257                       # Number of mispredicted indirect branches.
system.cpu_voltage_domain.voltage                   1                       # Voltage in Volts
system.cpu_clk_domain.clock                      1159                       # Clock period in ticks
system.cpu00.dtb.fetch_hits                         0                       # ITB hits
system.cpu00.dtb.fetch_misses                       0                       # ITB misses
system.cpu00.dtb.fetch_acv                          0                       # ITB acv
system.cpu00.dtb.fetch_accesses                     0                       # ITB accesses
system.cpu00.dtb.read_hits                     182057                       # DTB read hits
system.cpu00.dtb.read_misses                      612                       # DTB read misses
system.cpu00.dtb.read_acv                           0                       # DTB read access violations
system.cpu00.dtb.read_accesses                 182669                       # DTB read accesses
system.cpu00.dtb.write_hits                    127875                       # DTB write hits
system.cpu00.dtb.write_misses                    1019                       # DTB write misses
system.cpu00.dtb.write_acv                          0                       # DTB write access violations
system.cpu00.dtb.write_accesses                128894                       # DTB write accesses
system.cpu00.dtb.data_hits                     309932                       # DTB hits
system.cpu00.dtb.data_misses                     1631                       # DTB misses
system.cpu00.dtb.data_acv                           0                       # DTB access violations
system.cpu00.dtb.data_accesses                 311563                       # DTB accesses
system.cpu00.itb.fetch_hits                    149138                       # ITB hits
system.cpu00.itb.fetch_misses                     159                       # ITB misses
system.cpu00.itb.fetch_acv                          0                       # ITB acv
system.cpu00.itb.fetch_accesses                149297                       # ITB accesses
system.cpu00.itb.read_hits                          0                       # DTB read hits
system.cpu00.itb.read_misses                        0                       # DTB read misses
system.cpu00.itb.read_acv                           0                       # DTB read access violations
system.cpu00.itb.read_accesses                      0                       # DTB read accesses
system.cpu00.itb.write_hits                         0                       # DTB write hits
system.cpu00.itb.write_misses                       0                       # DTB write misses
system.cpu00.itb.write_acv                          0                       # DTB write access violations
system.cpu00.itb.write_accesses                     0                       # DTB write accesses
system.cpu00.itb.data_hits                          0                       # DTB hits
system.cpu00.itb.data_misses                        0                       # DTB misses
system.cpu00.itb.data_acv                           0                       # DTB access violations
system.cpu00.itb.data_accesses                      0                       # DTB accesses
system.cpu00.workload.num_syscalls               2296                       # Number of system calls
system.cpu00.numCycles                        1018205                       # number of cpu cycles simulated
system.cpu00.numWorkItemsStarted                    0                       # number of work items this cpu started
system.cpu00.numWorkItemsCompleted                  0                       # number of work items this cpu completed
system.cpu00.fetch.icacheStallCycles            77491                       # Number of cycles fetch is stalled on an Icache miss
system.cpu00.fetch.Insts                      1189741                       # Number of instructions fetch has processed
system.cpu00.fetch.Branches                    132470                       # Number of branches that fetch encountered
system.cpu00.fetch.predictedBranches            95691                       # Number of branches that fetch has predicted taken
system.cpu00.fetch.Cycles                      723679                       # Number of cycles fetch has run and was not squashing or blocked
system.cpu00.fetch.SquashCycles                 12720                       # Number of cycles fetch has spent squashing
system.cpu00.fetch.MiscStallCycles                746                       # Number of cycles fetch has spent waiting on interrupts, or bad addresses, or out of MSHRs
system.cpu00.fetch.PendingTrapStallCycles         6126                       # Number of stall cycles due to pending traps
system.cpu00.fetch.IcacheWaitRetryStallCycles          688                       # Number of stall cycles due to full MSHR
system.cpu00.fetch.CacheLines                  149138                       # Number of cache lines fetched
system.cpu00.fetch.IcacheSquashes                2597                       # Number of outstanding Icache misses that were squashed
system.cpu00.fetch.rateDist::samples           815090                       # Number of instructions fetched each cycle (Total)
system.cpu00.fetch.rateDist::mean            1.459644                       # Number of instructions fetched each cycle (Total)
system.cpu00.fetch.rateDist::stdev           2.724906                       # Number of instructions fetched each cycle (Total)
system.cpu00.fetch.rateDist::underflows             0      0.00%      0.00% # Number of instructions fetched each cycle (Total)
system.cpu00.fetch.rateDist::0                 597285     73.28%     73.28% # Number of instructions fetched each cycle (Total)
system.cpu00.fetch.rateDist::1                  16279      2.00%     75.28% # Number of instructions fetched each cycle (Total)
system.cpu00.fetch.rateDist::2                  17596      2.16%     77.43% # Number of instructions fetched each cycle (Total)
system.cpu00.fetch.rateDist::3                  16981      2.08%     79.52% # Number of instructions fetched each cycle (Total)
system.cpu00.fetch.rateDist::4                  38071      4.67%     84.19% # Number of instructions fetched each cycle (Total)
system.cpu00.fetch.rateDist::5                  15637      1.92%     86.11% # Number of instructions fetched each cycle (Total)
system.cpu00.fetch.rateDist::6                  18899      2.32%     88.43% # Number of instructions fetched each cycle (Total)
system.cpu00.fetch.rateDist::7                  11272      1.38%     89.81% # Number of instructions fetched each cycle (Total)
system.cpu00.fetch.rateDist::8                  83070     10.19%    100.00% # Number of instructions fetched each cycle (Total)
system.cpu00.fetch.rateDist::overflows              0      0.00%    100.00% # Number of instructions fetched each cycle (Total)
system.cpu00.fetch.rateDist::min_value              0                       # Number of instructions fetched each cycle (Total)
system.cpu00.fetch.rateDist::max_value              8                       # Number of instructions fetched each cycle (Total)
system.cpu00.fetch.rateDist::total             815090                       # Number of instructions fetched each cycle (Total)
system.cpu00.fetch.branchRate                0.130102                       # Number of branch fetches per cycle
system.cpu00.fetch.rate                      1.168469                       # Number of inst fetches per cycle
system.cpu00.decode.IdleCycles                  86301                       # Number of cycles decode is idle
system.cpu00.decode.BlockedCycles              561739                       # Number of cycles decode is blocked
system.cpu00.decode.RunCycles                  129113                       # Number of cycles decode is running
system.cpu00.decode.UnblockCycles               33314                       # Number of cycles decode is unblocking
system.cpu00.decode.SquashCycles                 4623                       # Number of cycles decode is squashing
system.cpu00.decode.BranchResolved              26435                       # Number of times decode resolved a branch
system.cpu00.decode.BranchMispred                1787                       # Number of times decode detected a branch misprediction
system.cpu00.decode.DecodedInsts              1124426                       # Number of instructions handled by decode
system.cpu00.decode.SquashedInsts                7268                       # Number of squashed instructions handled by decode
system.cpu00.rename.SquashCycles                 4623                       # Number of cycles rename is squashing
system.cpu00.rename.IdleCycles                 102146                       # Number of cycles rename is idle
system.cpu00.rename.BlockCycles                 88137                       # Number of cycles rename is blocking
system.cpu00.rename.serializeStallCycles       219127                       # count of cycles rename stalled for serializing inst
system.cpu00.rename.RunCycles                  146692                       # Number of cycles rename is running
system.cpu00.rename.UnblockCycles              254365                       # Number of cycles rename is unblocking
system.cpu00.rename.RenamedInsts              1105236                       # Number of instructions processed by rename
system.cpu00.rename.ROBFullEvents                2979                       # Number of times rename has blocked due to ROB full
system.cpu00.rename.IQFullEvents                22786                       # Number of times rename has blocked due to IQ full
system.cpu00.rename.LQFullEvents                 2161                       # Number of times rename has blocked due to LQ full
system.cpu00.rename.SQFullEvents               219093                       # Number of times rename has blocked due to SQ full
system.cpu00.rename.RenamedOperands            757732                       # Number of destination operands rename has renamed
system.cpu00.rename.RenameLookups             1369172                       # Number of register rename lookups that rename has made
system.cpu00.rename.int_rename_lookups        1210985                       # Number of integer rename lookups
system.cpu00.rename.fp_rename_lookups          155900                       # Number of floating rename lookups
system.cpu00.rename.CommittedMaps              668701                       # Number of HB maps that are committed
system.cpu00.rename.UndoneMaps                  89031                       # Number of HB maps that are undone due to squashing
system.cpu00.rename.serializingInsts             4034                       # count of serializing insts renamed
system.cpu00.rename.tempSerializingInsts         1659                       # count of temporary serializing insts renamed
system.cpu00.rename.skidInsts                  149103                       # count of insts added to the skid buffer
system.cpu00.memDep0.insertedLoads             179544                       # Number of loads inserted to the mem dependence unit.
system.cpu00.memDep0.insertedStores            135437                       # Number of stores inserted to the mem dependence unit.
system.cpu00.memDep0.conflictingLoads           32027                       # Number of conflicting loads.
system.cpu00.memDep0.conflictingStores          12252                       # Number of conflicting stores.
system.cpu00.iq.iqInstsAdded                   968542                       # Number of instructions added to the IQ (excludes non-spec)
system.cpu00.iq.iqNonSpecInstsAdded              2747                       # Number of non-speculative instructions added to the IQ
system.cpu00.iq.iqInstsIssued                  952774                       # Number of instructions issued
system.cpu00.iq.iqSquashedInstsIssued            1707                       # Number of squashed instructions issued
system.cpu00.iq.iqSquashedInstsExamined        101588                       # Number of squashed instructions iterated over during squash; mainly for profiling
system.cpu00.iq.iqSquashedOperandsExamined        51761                       # Number of squashed operands that are examined and possibly removed from graph
system.cpu00.iq.iqSquashedNonSpecRemoved          382                       # Number of squashed non-spec instructions that were removed
system.cpu00.iq.issued_per_cycle::samples       815090                       # Number of insts issued each cycle
system.cpu00.iq.issued_per_cycle::mean       1.168919                       # Number of insts issued each cycle
system.cpu00.iq.issued_per_cycle::stdev      1.936378                       # Number of insts issued each cycle
system.cpu00.iq.issued_per_cycle::underflows            0      0.00%      0.00% # Number of insts issued each cycle
system.cpu00.iq.issued_per_cycle::0            516980     63.43%     63.43% # Number of insts issued each cycle
system.cpu00.iq.issued_per_cycle::1             73695      9.04%     72.47% # Number of insts issued each cycle
system.cpu00.iq.issued_per_cycle::2             60789      7.46%     79.93% # Number of insts issued each cycle
system.cpu00.iq.issued_per_cycle::3             45222      5.55%     85.47% # Number of insts issued each cycle
system.cpu00.iq.issued_per_cycle::4             43702      5.36%     90.84% # Number of insts issued each cycle
system.cpu00.iq.issued_per_cycle::5             28574      3.51%     94.34% # Number of insts issued each cycle
system.cpu00.iq.issued_per_cycle::6             26661      3.27%     97.61% # Number of insts issued each cycle
system.cpu00.iq.issued_per_cycle::7             11545      1.42%     99.03% # Number of insts issued each cycle
system.cpu00.iq.issued_per_cycle::8              7922      0.97%    100.00% # Number of insts issued each cycle
system.cpu00.iq.issued_per_cycle::overflows            0      0.00%    100.00% # Number of insts issued each cycle
system.cpu00.iq.issued_per_cycle::min_value            0                       # Number of insts issued each cycle
system.cpu00.iq.issued_per_cycle::max_value            8                       # Number of insts issued each cycle
system.cpu00.iq.issued_per_cycle::total        815090                       # Number of insts issued each cycle
system.cpu00.iq.fu_full::No_OpClass                 0      0.00%      0.00% # attempts to use FU when none available
system.cpu00.iq.fu_full::IntAlu                  5009     16.02%     16.02% # attempts to use FU when none available
system.cpu00.iq.fu_full::IntMult                 4097     13.10%     29.12% # attempts to use FU when none available
system.cpu00.iq.fu_full::IntDiv                     0      0.00%     29.12% # attempts to use FU when none available
system.cpu00.iq.fu_full::FloatAdd                  74      0.24%     29.36% # attempts to use FU when none available
system.cpu00.iq.fu_full::FloatCmp                   0      0.00%     29.36% # attempts to use FU when none available
system.cpu00.iq.fu_full::FloatCvt                   0      0.00%     29.36% # attempts to use FU when none available
system.cpu00.iq.fu_full::FloatMult               5953     19.04%     48.40% # attempts to use FU when none available
system.cpu00.iq.fu_full::FloatDiv                   0      0.00%     48.40% # attempts to use FU when none available
system.cpu00.iq.fu_full::FloatSqrt                  0      0.00%     48.40% # attempts to use FU when none available
system.cpu00.iq.fu_full::SimdAdd                    0      0.00%     48.40% # attempts to use FU when none available
system.cpu00.iq.fu_full::SimdAddAcc                 0      0.00%     48.40% # attempts to use FU when none available
system.cpu00.iq.fu_full::SimdAlu                    0      0.00%     48.40% # attempts to use FU when none available
system.cpu00.iq.fu_full::SimdCmp                    0      0.00%     48.40% # attempts to use FU when none available
system.cpu00.iq.fu_full::SimdCvt                    0      0.00%     48.40% # attempts to use FU when none available
system.cpu00.iq.fu_full::SimdMisc                   0      0.00%     48.40% # attempts to use FU when none available
system.cpu00.iq.fu_full::SimdMult                   0      0.00%     48.40% # attempts to use FU when none available
system.cpu00.iq.fu_full::SimdMultAcc                0      0.00%     48.40% # attempts to use FU when none available
system.cpu00.iq.fu_full::SimdShift                  0      0.00%     48.40% # attempts to use FU when none available
system.cpu00.iq.fu_full::SimdShiftAcc               0      0.00%     48.40% # attempts to use FU when none available
system.cpu00.iq.fu_full::SimdSqrt                   0      0.00%     48.40% # attempts to use FU when none available
system.cpu00.iq.fu_full::SimdFloatAdd               0      0.00%     48.40% # attempts to use FU when none available
system.cpu00.iq.fu_full::SimdFloatAlu               0      0.00%     48.40% # attempts to use FU when none available
system.cpu00.iq.fu_full::SimdFloatCmp               0      0.00%     48.40% # attempts to use FU when none available
system.cpu00.iq.fu_full::SimdFloatCvt               0      0.00%     48.40% # attempts to use FU when none available
system.cpu00.iq.fu_full::SimdFloatDiv               0      0.00%     48.40% # attempts to use FU when none available
system.cpu00.iq.fu_full::SimdFloatMisc              0      0.00%     48.40% # attempts to use FU when none available
system.cpu00.iq.fu_full::SimdFloatMult              0      0.00%     48.40% # attempts to use FU when none available
system.cpu00.iq.fu_full::SimdFloatMultAcc            0      0.00%     48.40% # attempts to use FU when none available
system.cpu00.iq.fu_full::SimdFloatSqrt              0      0.00%     48.40% # attempts to use FU when none available
system.cpu00.iq.fu_full::MemRead                 9852     31.51%     79.91% # attempts to use FU when none available
system.cpu00.iq.fu_full::MemWrite                6281     20.09%    100.00% # attempts to use FU when none available
system.cpu00.iq.fu_full::IprAccess                  0      0.00%    100.00% # attempts to use FU when none available
system.cpu00.iq.fu_full::InstPrefetch               0      0.00%    100.00% # attempts to use FU when none available
system.cpu00.iq.FU_type_0::No_OpClass               0      0.00%      0.00% # Type of FU issued
system.cpu00.iq.FU_type_0::IntAlu              550797     57.81%     57.81% # Type of FU issued
system.cpu00.iq.FU_type_0::IntMult              12791      1.34%     59.15% # Type of FU issued
system.cpu00.iq.FU_type_0::IntDiv                   0      0.00%     59.15% # Type of FU issued
system.cpu00.iq.FU_type_0::FloatAdd             35715      3.75%     62.90% # Type of FU issued
system.cpu00.iq.FU_type_0::FloatCmp                 8      0.00%     62.90% # Type of FU issued
system.cpu00.iq.FU_type_0::FloatCvt                 0      0.00%     62.90% # Type of FU issued
system.cpu00.iq.FU_type_0::FloatMult            37107      3.89%     66.80% # Type of FU issued
system.cpu00.iq.FU_type_0::FloatDiv                16      0.00%     66.80% # Type of FU issued
system.cpu00.iq.FU_type_0::FloatSqrt                0      0.00%     66.80% # Type of FU issued
system.cpu00.iq.FU_type_0::SimdAdd                  0      0.00%     66.80% # Type of FU issued
system.cpu00.iq.FU_type_0::SimdAddAcc               0      0.00%     66.80% # Type of FU issued
system.cpu00.iq.FU_type_0::SimdAlu                  0      0.00%     66.80% # Type of FU issued
system.cpu00.iq.FU_type_0::SimdCmp                  0      0.00%     66.80% # Type of FU issued
system.cpu00.iq.FU_type_0::SimdCvt                  0      0.00%     66.80% # Type of FU issued
system.cpu00.iq.FU_type_0::SimdMisc                 0      0.00%     66.80% # Type of FU issued
system.cpu00.iq.FU_type_0::SimdMult                 0      0.00%     66.80% # Type of FU issued
system.cpu00.iq.FU_type_0::SimdMultAcc              0      0.00%     66.80% # Type of FU issued
system.cpu00.iq.FU_type_0::SimdShift                0      0.00%     66.80% # Type of FU issued
system.cpu00.iq.FU_type_0::SimdShiftAcc             0      0.00%     66.80% # Type of FU issued
system.cpu00.iq.FU_type_0::SimdSqrt                 0      0.00%     66.80% # Type of FU issued
system.cpu00.iq.FU_type_0::SimdFloatAdd             0      0.00%     66.80% # Type of FU issued
system.cpu00.iq.FU_type_0::SimdFloatAlu             0      0.00%     66.80% # Type of FU issued
system.cpu00.iq.FU_type_0::SimdFloatCmp             0      0.00%     66.80% # Type of FU issued
system.cpu00.iq.FU_type_0::SimdFloatCvt             0      0.00%     66.80% # Type of FU issued
system.cpu00.iq.FU_type_0::SimdFloatDiv             0      0.00%     66.80% # Type of FU issued
system.cpu00.iq.FU_type_0::SimdFloatMisc            0      0.00%     66.80% # Type of FU issued
system.cpu00.iq.FU_type_0::SimdFloatMult            0      0.00%     66.80% # Type of FU issued
system.cpu00.iq.FU_type_0::SimdFloatMultAcc            0      0.00%     66.80% # Type of FU issued
system.cpu00.iq.FU_type_0::SimdFloatSqrt            0      0.00%     66.80% # Type of FU issued
system.cpu00.iq.FU_type_0::MemRead             185898     19.51%     86.31% # Type of FU issued
system.cpu00.iq.FU_type_0::MemWrite            130442     13.69%    100.00% # Type of FU issued
system.cpu00.iq.FU_type_0::IprAccess                0      0.00%    100.00% # Type of FU issued
system.cpu00.iq.FU_type_0::InstPrefetch             0      0.00%    100.00% # Type of FU issued
system.cpu00.iq.FU_type_0::total               952774                       # Type of FU issued
system.cpu00.iq.rate                         0.935739                       # Inst issue rate
system.cpu00.iq.fu_busy_cnt                     31266                       # FU busy when requested
system.cpu00.iq.fu_busy_rate                 0.032816                       # FU busy rate (busy events/executed inst)
system.cpu00.iq.int_inst_queue_reads          2509791                       # Number of integer instruction queue reads
system.cpu00.iq.int_inst_queue_writes          949812                       # Number of integer instruction queue writes
system.cpu00.iq.int_inst_queue_wakeup_accesses       813333                       # Number of integer instruction queue wakeup accesses
system.cpu00.iq.fp_inst_queue_reads            243820                       # Number of floating instruction queue reads
system.cpu00.iq.fp_inst_queue_writes           123484                       # Number of floating instruction queue writes
system.cpu00.iq.fp_inst_queue_wakeup_accesses       116995                       # Number of floating instruction queue wakeup accesses
system.cpu00.iq.int_alu_accesses               858745                       # Number of integer alu accesses
system.cpu00.iq.fp_alu_accesses                125295                       # Number of floating point alu accesses
system.cpu00.iew.lsq.thread0.forwLoads          21322                       # Number of loads that had data forwarded from stores
system.cpu00.iew.lsq.thread0.invAddrLoads            0                       # Number of loads ignored due to an invalid address
system.cpu00.iew.lsq.thread0.squashedLoads        18609                       # Number of loads squashed
system.cpu00.iew.lsq.thread0.ignoredResponses          100                       # Number of memory responses ignored because the instruction is squashed
system.cpu00.iew.lsq.thread0.memOrderViolation          429                       # Number of memory ordering violations
system.cpu00.iew.lsq.thread0.squashedStores        15925                       # Number of stores squashed
system.cpu00.iew.lsq.thread0.invAddrSwpfs            0                       # Number of software prefetches ignored due to an invalid address
system.cpu00.iew.lsq.thread0.blockedLoads            0                       # Number of blocked loads due to partial load-store forwarding
system.cpu00.iew.lsq.thread0.rescheduledLoads          219                       # Number of loads that were rescheduled
system.cpu00.iew.lsq.thread0.cacheBlocked        11217                       # Number of times an access to memory failed due to the cache being blocked
system.cpu00.iew.iewIdleCycles                      0                       # Number of cycles IEW is idle
system.cpu00.iew.iewSquashCycles                 4623                       # Number of cycles IEW is squashing
system.cpu00.iew.iewBlockCycles                 22899                       # Number of cycles IEW is blocking
system.cpu00.iew.iewUnblockCycles               56317                       # Number of cycles IEW is unblocking
system.cpu00.iew.iewDispatchedInsts           1078827                       # Number of instructions dispatched to IQ
system.cpu00.iew.iewDispSquashedInsts            1396                       # Number of squashed instructions skipped by dispatch
system.cpu00.iew.iewDispLoadInsts              179544                       # Number of dispatched load instructions
system.cpu00.iew.iewDispStoreInsts             135437                       # Number of dispatched store instructions
system.cpu00.iew.iewDispNonSpecInsts             1577                       # Number of dispatched non-speculative instructions
system.cpu00.iew.iewIQFullEvents                  124                       # Number of times the IQ has become full, causing a stall
system.cpu00.iew.iewLSQFullEvents               56083                       # Number of times the LSQ has become full, causing a stall
system.cpu00.iew.memOrderViolationEvents          429                       # Number of memory order violations
system.cpu00.iew.predictedTakenIncorrect         1564                       # Number of branches that were predicted taken incorrectly
system.cpu00.iew.predictedNotTakenIncorrect         3105                       # Number of branches that were predicted not taken incorrectly
system.cpu00.iew.branchMispredicts               4669                       # Number of branch mispredicts detected at execute
system.cpu00.iew.iewExecutedInsts              945257                       # Number of executed instructions
system.cpu00.iew.iewExecLoadInsts              182689                       # Number of load instructions executed
system.cpu00.iew.iewExecSquashedInsts            7517                       # Number of squashed instructions skipped in execute
system.cpu00.iew.exec_swp                           0                       # number of swp insts executed
system.cpu00.iew.exec_nop                      107538                       # number of nop insts executed
system.cpu00.iew.exec_refs                     311591                       # number of memory reference insts executed
system.cpu00.iew.exec_branches                 110243                       # Number of branches executed
system.cpu00.iew.exec_stores                   128902                       # Number of stores executed
system.cpu00.iew.exec_rate                   0.928356                       # Inst execution rate
system.cpu00.iew.wb_sent                       933839                       # cumulative count of insts sent to commit
system.cpu00.iew.wb_count                      930328                       # cumulative count of insts written-back
system.cpu00.iew.wb_producers                  545601                       # num instructions producing a value
system.cpu00.iew.wb_consumers                  777822                       # num instructions consuming a value
system.cpu00.iew.wb_rate                     0.913694                       # insts written-back per cycle
system.cpu00.iew.wb_fanout                   0.701447                       # average fanout of values written-back
system.cpu00.commit.commitSquashedInsts        105930                       # The number of squashed insts skipped by commit
system.cpu00.commit.commitNonSpecStalls          2365                       # The number of times commit has been forced to stall to communicate backwards
system.cpu00.commit.branchMispredicts            3937                       # The number of times a branch was mispredicted
system.cpu00.commit.committed_per_cycle::samples       798435                       # Number of insts commited each cycle
system.cpu00.commit.committed_per_cycle::mean     1.212739                       # Number of insts commited each cycle
system.cpu00.commit.committed_per_cycle::stdev     2.309871                       # Number of insts commited each cycle
system.cpu00.commit.committed_per_cycle::underflows            0      0.00%      0.00% # Number of insts commited each cycle
system.cpu00.commit.committed_per_cycle::0       550427     68.94%     68.94% # Number of insts commited each cycle
system.cpu00.commit.committed_per_cycle::1        51609      6.46%     75.40% # Number of insts commited each cycle
system.cpu00.commit.committed_per_cycle::2        50928      6.38%     81.78% # Number of insts commited each cycle
system.cpu00.commit.committed_per_cycle::3        29916      3.75%     85.53% # Number of insts commited each cycle
system.cpu00.commit.committed_per_cycle::4        35453      4.44%     89.97% # Number of insts commited each cycle
system.cpu00.commit.committed_per_cycle::5         8936      1.12%     91.09% # Number of insts commited each cycle
system.cpu00.commit.committed_per_cycle::6        12799      1.60%     92.69% # Number of insts commited each cycle
system.cpu00.commit.committed_per_cycle::7         5142      0.64%     93.33% # Number of insts commited each cycle
system.cpu00.commit.committed_per_cycle::8        53225      6.67%    100.00% # Number of insts commited each cycle
system.cpu00.commit.committed_per_cycle::overflows            0      0.00%    100.00% # Number of insts commited each cycle
system.cpu00.commit.committed_per_cycle::min_value            0                       # Number of insts commited each cycle
system.cpu00.commit.committed_per_cycle::max_value            8                       # Number of insts commited each cycle
system.cpu00.commit.committed_per_cycle::total       798435                       # Number of insts commited each cycle
system.cpu00.commit.committedInsts             968293                       # Number of instructions committed
system.cpu00.commit.committedOps               968293                       # Number of ops (including micro ops) committed
system.cpu00.commit.swp_count                       0                       # Number of s/w prefetches committed
system.cpu00.commit.refs                       280447                       # Number of memory references committed
system.cpu00.commit.loads                      160935                       # Number of loads committed
system.cpu00.commit.membars                      1032                       # Number of memory barriers committed
system.cpu00.commit.branches                   100063                       # Number of branches committed
system.cpu00.commit.fp_insts                   116058                       # Number of committed floating point instructions.
system.cpu00.commit.int_insts                  791836                       # Number of committed integer instructions.
system.cpu00.commit.function_calls              22210                       # Number of function calls committed.
system.cpu00.commit.op_class_0::No_OpClass        98593     10.18%     10.18% # Class of committed instruction
system.cpu00.commit.op_class_0::IntAlu         503094     51.96%     62.14% # Class of committed instruction
system.cpu00.commit.op_class_0::IntMult         12689      1.31%     63.45% # Class of committed instruction
system.cpu00.commit.op_class_0::IntDiv              0      0.00%     63.45% # Class of committed instruction
system.cpu00.commit.op_class_0::FloatAdd        35480      3.66%     67.11% # Class of committed instruction
system.cpu00.commit.op_class_0::FloatCmp            8      0.00%     67.11% # Class of committed instruction
system.cpu00.commit.op_class_0::FloatCvt            0      0.00%     67.11% # Class of committed instruction
system.cpu00.commit.op_class_0::FloatMult        36935      3.81%     70.93% # Class of committed instruction
system.cpu00.commit.op_class_0::FloatDiv           14      0.00%     70.93% # Class of committed instruction
system.cpu00.commit.op_class_0::FloatSqrt            0      0.00%     70.93% # Class of committed instruction
system.cpu00.commit.op_class_0::SimdAdd             0      0.00%     70.93% # Class of committed instruction
system.cpu00.commit.op_class_0::SimdAddAcc            0      0.00%     70.93% # Class of committed instruction
system.cpu00.commit.op_class_0::SimdAlu             0      0.00%     70.93% # Class of committed instruction
system.cpu00.commit.op_class_0::SimdCmp             0      0.00%     70.93% # Class of committed instruction
system.cpu00.commit.op_class_0::SimdCvt             0      0.00%     70.93% # Class of committed instruction
system.cpu00.commit.op_class_0::SimdMisc            0      0.00%     70.93% # Class of committed instruction
system.cpu00.commit.op_class_0::SimdMult            0      0.00%     70.93% # Class of committed instruction
system.cpu00.commit.op_class_0::SimdMultAcc            0      0.00%     70.93% # Class of committed instruction
system.cpu00.commit.op_class_0::SimdShift            0      0.00%     70.93% # Class of committed instruction
system.cpu00.commit.op_class_0::SimdShiftAcc            0      0.00%     70.93% # Class of committed instruction
system.cpu00.commit.op_class_0::SimdSqrt            0      0.00%     70.93% # Class of committed instruction
system.cpu00.commit.op_class_0::SimdFloatAdd            0      0.00%     70.93% # Class of committed instruction
system.cpu00.commit.op_class_0::SimdFloatAlu            0      0.00%     70.93% # Class of committed instruction
system.cpu00.commit.op_class_0::SimdFloatCmp            0      0.00%     70.93% # Class of committed instruction
system.cpu00.commit.op_class_0::SimdFloatCvt            0      0.00%     70.93% # Class of committed instruction
system.cpu00.commit.op_class_0::SimdFloatDiv            0      0.00%     70.93% # Class of committed instruction
system.cpu00.commit.op_class_0::SimdFloatMisc            0      0.00%     70.93% # Class of committed instruction
system.cpu00.commit.op_class_0::SimdFloatMult            0      0.00%     70.93% # Class of committed instruction
system.cpu00.commit.op_class_0::SimdFloatMultAcc            0      0.00%     70.93% # Class of committed instruction
system.cpu00.commit.op_class_0::SimdFloatSqrt            0      0.00%     70.93% # Class of committed instruction
system.cpu00.commit.op_class_0::MemRead        161967     16.73%     87.66% # Class of committed instruction
system.cpu00.commit.op_class_0::MemWrite       119513     12.34%    100.00% # Class of committed instruction
system.cpu00.commit.op_class_0::IprAccess            0      0.00%    100.00% # Class of committed instruction
system.cpu00.commit.op_class_0::InstPrefetch            0      0.00%    100.00% # Class of committed instruction
system.cpu00.commit.op_class_0::total          968293                       # Class of committed instruction
system.cpu00.commit.bw_lim_events               53225                       # number cycles where commit BW limit reached
system.cpu00.rob.rob_reads                    1815442                       # The number of ROB reads
system.cpu00.rob.rob_writes                   2165257                       # The number of ROB writes
system.cpu00.timesIdled                          1437                       # Number of times that the entire CPU went into an idle state and unscheduled itself
system.cpu00.idleCycles                        203115                       # Total number of cycles that the CPU has spent unscheduled due to idling
system.cpu00.quiesceCycles                      65379                       # Total number of cycles that CPU has spent quiesced or waiting for an interrupt
system.cpu00.committedInsts                    869700                       # Number of Instructions Simulated
system.cpu00.committedOps                      869700                       # Number of Ops (including micro ops) Simulated
system.cpu00.cpi                             1.170754                       # CPI: Cycles Per Instruction
system.cpu00.cpi_total                       1.170754                       # CPI: Total CPI of All Threads
system.cpu00.ipc                             0.854150                       # IPC: Instructions Per Cycle
system.cpu00.ipc_total                       0.854150                       # IPC: Total IPC of All Threads
system.cpu00.int_regfile_reads                1141633                       # number of integer regfile reads
system.cpu00.int_regfile_writes                612440                       # number of integer regfile writes
system.cpu00.fp_regfile_reads                  151828                       # number of floating regfile reads
system.cpu00.fp_regfile_writes                 102908                       # number of floating regfile writes
system.cpu00.misc_regfile_reads                  4721                       # number of misc regfile reads
system.cpu00.misc_regfile_writes                 2247                       # number of misc regfile writes
system.cpu00.dcache.tags.replacements           14930                       # number of replacements
system.cpu00.dcache.tags.tagsinuse          63.147248                       # Cycle average of tags in use
system.cpu00.dcache.tags.total_refs            224053                       # Total number of references to valid blocks.
system.cpu00.dcache.tags.sampled_refs           14994                       # Sample count of references to valid blocks.
system.cpu00.dcache.tags.avg_refs           14.942844                       # Average number of references to valid blocks.
system.cpu00.dcache.tags.warmup_cycle        26316254                       # Cycle when the warmup percentage was hit.
system.cpu00.dcache.tags.occ_blocks::cpu00.data    63.147248                       # Average occupied blocks per requestor
system.cpu00.dcache.tags.occ_percent::cpu00.data     0.986676                       # Average percentage of cache occupancy
system.cpu00.dcache.tags.occ_percent::total     0.986676                       # Average percentage of cache occupancy
system.cpu00.dcache.tags.occ_task_id_blocks::1024           64                       # Occupied blocks per task id
system.cpu00.dcache.tags.age_task_id_blocks_1024::0           58                       # Occupied blocks per task id
system.cpu00.dcache.tags.age_task_id_blocks_1024::1            6                       # Occupied blocks per task id
system.cpu00.dcache.tags.occ_task_id_percent::1024            1                       # Percentage of cache occupancy per task id
system.cpu00.dcache.tags.tag_accesses         1099165                       # Number of tag accesses
system.cpu00.dcache.tags.data_accesses        1099165                       # Number of data accesses
system.cpu00.dcache.ReadReq_hits::cpu00.data       138878                       # number of ReadReq hits
system.cpu00.dcache.ReadReq_hits::total        138878                       # number of ReadReq hits
system.cpu00.dcache.WriteReq_hits::cpu00.data        83076                       # number of WriteReq hits
system.cpu00.dcache.WriteReq_hits::total        83076                       # number of WriteReq hits
system.cpu00.dcache.LoadLockedReq_hits::cpu00.data          885                       # number of LoadLockedReq hits
system.cpu00.dcache.LoadLockedReq_hits::total          885                       # number of LoadLockedReq hits
system.cpu00.dcache.StoreCondReq_hits::cpu00.data         1103                       # number of StoreCondReq hits
system.cpu00.dcache.StoreCondReq_hits::total         1103                       # number of StoreCondReq hits
system.cpu00.dcache.demand_hits::cpu00.data       221954                       # number of demand (read+write) hits
system.cpu00.dcache.demand_hits::total         221954                       # number of demand (read+write) hits
system.cpu00.dcache.overall_hits::cpu00.data       221954                       # number of overall hits
system.cpu00.dcache.overall_hits::total        221954                       # number of overall hits
system.cpu00.dcache.ReadReq_misses::cpu00.data        11428                       # number of ReadReq misses
system.cpu00.dcache.ReadReq_misses::total        11428                       # number of ReadReq misses
system.cpu00.dcache.WriteReq_misses::cpu00.data        35315                       # number of WriteReq misses
system.cpu00.dcache.WriteReq_misses::total        35315                       # number of WriteReq misses
system.cpu00.dcache.LoadLockedReq_misses::cpu00.data          313                       # number of LoadLockedReq misses
system.cpu00.dcache.LoadLockedReq_misses::total          313                       # number of LoadLockedReq misses
system.cpu00.dcache.StoreCondReq_misses::cpu00.data           18                       # number of StoreCondReq misses
system.cpu00.dcache.StoreCondReq_misses::total           18                       # number of StoreCondReq misses
system.cpu00.dcache.demand_misses::cpu00.data        46743                       # number of demand (read+write) misses
system.cpu00.dcache.demand_misses::total        46743                       # number of demand (read+write) misses
system.cpu00.dcache.overall_misses::cpu00.data        46743                       # number of overall misses
system.cpu00.dcache.overall_misses::total        46743                       # number of overall misses
system.cpu00.dcache.ReadReq_miss_latency::cpu00.data    449817172                       # number of ReadReq miss cycles
system.cpu00.dcache.ReadReq_miss_latency::total    449817172                       # number of ReadReq miss cycles
system.cpu00.dcache.WriteReq_miss_latency::cpu00.data   5385291676                       # number of WriteReq miss cycles
system.cpu00.dcache.WriteReq_miss_latency::total   5385291676                       # number of WriteReq miss cycles
system.cpu00.dcache.LoadLockedReq_miss_latency::cpu00.data      2869684                       # number of LoadLockedReq miss cycles
system.cpu00.dcache.LoadLockedReq_miss_latency::total      2869684                       # number of LoadLockedReq miss cycles
system.cpu00.dcache.StoreCondReq_miss_latency::cpu00.data       537776                       # number of StoreCondReq miss cycles
system.cpu00.dcache.StoreCondReq_miss_latency::total       537776                       # number of StoreCondReq miss cycles
system.cpu00.dcache.demand_miss_latency::cpu00.data   5835108848                       # number of demand (read+write) miss cycles
system.cpu00.dcache.demand_miss_latency::total   5835108848                       # number of demand (read+write) miss cycles
system.cpu00.dcache.overall_miss_latency::cpu00.data   5835108848                       # number of overall miss cycles
system.cpu00.dcache.overall_miss_latency::total   5835108848                       # number of overall miss cycles
system.cpu00.dcache.ReadReq_accesses::cpu00.data       150306                       # number of ReadReq accesses(hits+misses)
system.cpu00.dcache.ReadReq_accesses::total       150306                       # number of ReadReq accesses(hits+misses)
system.cpu00.dcache.WriteReq_accesses::cpu00.data       118391                       # number of WriteReq accesses(hits+misses)
system.cpu00.dcache.WriteReq_accesses::total       118391                       # number of WriteReq accesses(hits+misses)
system.cpu00.dcache.LoadLockedReq_accesses::cpu00.data         1198                       # number of LoadLockedReq accesses(hits+misses)
system.cpu00.dcache.LoadLockedReq_accesses::total         1198                       # number of LoadLockedReq accesses(hits+misses)
system.cpu00.dcache.StoreCondReq_accesses::cpu00.data         1121                       # number of StoreCondReq accesses(hits+misses)
system.cpu00.dcache.StoreCondReq_accesses::total         1121                       # number of StoreCondReq accesses(hits+misses)
system.cpu00.dcache.demand_accesses::cpu00.data       268697                       # number of demand (read+write) accesses
system.cpu00.dcache.demand_accesses::total       268697                       # number of demand (read+write) accesses
system.cpu00.dcache.overall_accesses::cpu00.data       268697                       # number of overall (read+write) accesses
system.cpu00.dcache.overall_accesses::total       268697                       # number of overall (read+write) accesses
system.cpu00.dcache.ReadReq_miss_rate::cpu00.data     0.076032                       # miss rate for ReadReq accesses
system.cpu00.dcache.ReadReq_miss_rate::total     0.076032                       # miss rate for ReadReq accesses
system.cpu00.dcache.WriteReq_miss_rate::cpu00.data     0.298291                       # miss rate for WriteReq accesses
system.cpu00.dcache.WriteReq_miss_rate::total     0.298291                       # miss rate for WriteReq accesses
system.cpu00.dcache.LoadLockedReq_miss_rate::cpu00.data     0.261269                       # miss rate for LoadLockedReq accesses
system.cpu00.dcache.LoadLockedReq_miss_rate::total     0.261269                       # miss rate for LoadLockedReq accesses
system.cpu00.dcache.StoreCondReq_miss_rate::cpu00.data     0.016057                       # miss rate for StoreCondReq accesses
system.cpu00.dcache.StoreCondReq_miss_rate::total     0.016057                       # miss rate for StoreCondReq accesses
system.cpu00.dcache.demand_miss_rate::cpu00.data     0.173962                       # miss rate for demand accesses
system.cpu00.dcache.demand_miss_rate::total     0.173962                       # miss rate for demand accesses
system.cpu00.dcache.overall_miss_rate::cpu00.data     0.173962                       # miss rate for overall accesses
system.cpu00.dcache.overall_miss_rate::total     0.173962                       # miss rate for overall accesses
system.cpu00.dcache.ReadReq_avg_miss_latency::cpu00.data 39360.970599                       # average ReadReq miss latency
system.cpu00.dcache.ReadReq_avg_miss_latency::total 39360.970599                       # average ReadReq miss latency
system.cpu00.dcache.WriteReq_avg_miss_latency::cpu00.data 152493.039105                       # average WriteReq miss latency
system.cpu00.dcache.WriteReq_avg_miss_latency::total 152493.039105                       # average WriteReq miss latency
system.cpu00.dcache.LoadLockedReq_avg_miss_latency::cpu00.data  9168.319489                       # average LoadLockedReq miss latency
system.cpu00.dcache.LoadLockedReq_avg_miss_latency::total  9168.319489                       # average LoadLockedReq miss latency
system.cpu00.dcache.StoreCondReq_avg_miss_latency::cpu00.data 29876.444444                       # average StoreCondReq miss latency
system.cpu00.dcache.StoreCondReq_avg_miss_latency::total 29876.444444                       # average StoreCondReq miss latency
system.cpu00.dcache.demand_avg_miss_latency::cpu00.data 124833.854224                       # average overall miss latency
system.cpu00.dcache.demand_avg_miss_latency::total 124833.854224                       # average overall miss latency
system.cpu00.dcache.overall_avg_miss_latency::cpu00.data 124833.854224                       # average overall miss latency
system.cpu00.dcache.overall_avg_miss_latency::total 124833.854224                       # average overall miss latency
system.cpu00.dcache.blocked_cycles::no_mshrs       160046                       # number of cycles access was blocked
system.cpu00.dcache.blocked_cycles::no_targets            0                       # number of cycles access was blocked
system.cpu00.dcache.blocked::no_mshrs            3261                       # number of cycles access was blocked
system.cpu00.dcache.blocked::no_targets             0                       # number of cycles access was blocked
system.cpu00.dcache.avg_blocked_cycles::no_mshrs    49.078810                       # average number of cycles each access was blocked
system.cpu00.dcache.avg_blocked_cycles::no_targets          nan                       # average number of cycles each access was blocked
system.cpu00.dcache.fast_writes                     0                       # number of fast writes performed
system.cpu00.dcache.cache_copies                    0                       # number of cache copies performed
system.cpu00.dcache.writebacks::writebacks        10761                       # number of writebacks
system.cpu00.dcache.writebacks::total           10761                       # number of writebacks
system.cpu00.dcache.ReadReq_mshr_hits::cpu00.data         3553                       # number of ReadReq MSHR hits
system.cpu00.dcache.ReadReq_mshr_hits::total         3553                       # number of ReadReq MSHR hits
system.cpu00.dcache.WriteReq_mshr_hits::cpu00.data        28188                       # number of WriteReq MSHR hits
system.cpu00.dcache.WriteReq_mshr_hits::total        28188                       # number of WriteReq MSHR hits
system.cpu00.dcache.LoadLockedReq_mshr_hits::cpu00.data          145                       # number of LoadLockedReq MSHR hits
system.cpu00.dcache.LoadLockedReq_mshr_hits::total          145                       # number of LoadLockedReq MSHR hits
system.cpu00.dcache.demand_mshr_hits::cpu00.data        31741                       # number of demand (read+write) MSHR hits
system.cpu00.dcache.demand_mshr_hits::total        31741                       # number of demand (read+write) MSHR hits
system.cpu00.dcache.overall_mshr_hits::cpu00.data        31741                       # number of overall MSHR hits
system.cpu00.dcache.overall_mshr_hits::total        31741                       # number of overall MSHR hits
system.cpu00.dcache.ReadReq_mshr_misses::cpu00.data         7875                       # number of ReadReq MSHR misses
system.cpu00.dcache.ReadReq_mshr_misses::total         7875                       # number of ReadReq MSHR misses
system.cpu00.dcache.WriteReq_mshr_misses::cpu00.data         7127                       # number of WriteReq MSHR misses
system.cpu00.dcache.WriteReq_mshr_misses::total         7127                       # number of WriteReq MSHR misses
system.cpu00.dcache.LoadLockedReq_mshr_misses::cpu00.data          168                       # number of LoadLockedReq MSHR misses
system.cpu00.dcache.LoadLockedReq_mshr_misses::total          168                       # number of LoadLockedReq MSHR misses
system.cpu00.dcache.StoreCondReq_mshr_misses::cpu00.data           18                       # number of StoreCondReq MSHR misses
system.cpu00.dcache.StoreCondReq_mshr_misses::total           18                       # number of StoreCondReq MSHR misses
system.cpu00.dcache.demand_mshr_misses::cpu00.data        15002                       # number of demand (read+write) MSHR misses
system.cpu00.dcache.demand_mshr_misses::total        15002                       # number of demand (read+write) MSHR misses
system.cpu00.dcache.overall_mshr_misses::cpu00.data        15002                       # number of overall MSHR misses
system.cpu00.dcache.overall_mshr_misses::total        15002                       # number of overall MSHR misses
system.cpu00.dcache.ReadReq_mshr_miss_latency::cpu00.data    254099160                       # number of ReadReq MSHR miss cycles
system.cpu00.dcache.ReadReq_mshr_miss_latency::total    254099160                       # number of ReadReq MSHR miss cycles
system.cpu00.dcache.WriteReq_mshr_miss_latency::cpu00.data   1140567132                       # number of WriteReq MSHR miss cycles
system.cpu00.dcache.WriteReq_mshr_miss_latency::total   1140567132                       # number of WriteReq MSHR miss cycles
system.cpu00.dcache.LoadLockedReq_mshr_miss_latency::cpu00.data      1292285                       # number of LoadLockedReq MSHR miss cycles
system.cpu00.dcache.LoadLockedReq_mshr_miss_latency::total      1292285                       # number of LoadLockedReq MSHR miss cycles
system.cpu00.dcache.StoreCondReq_mshr_miss_latency::cpu00.data       516914                       # number of StoreCondReq MSHR miss cycles
system.cpu00.dcache.StoreCondReq_mshr_miss_latency::total       516914                       # number of StoreCondReq MSHR miss cycles
system.cpu00.dcache.demand_mshr_miss_latency::cpu00.data   1394666292                       # number of demand (read+write) MSHR miss cycles
system.cpu00.dcache.demand_mshr_miss_latency::total   1394666292                       # number of demand (read+write) MSHR miss cycles
system.cpu00.dcache.overall_mshr_miss_latency::cpu00.data   1394666292                       # number of overall MSHR miss cycles
system.cpu00.dcache.overall_mshr_miss_latency::total   1394666292                       # number of overall MSHR miss cycles
system.cpu00.dcache.ReadReq_mshr_miss_rate::cpu00.data     0.052393                       # mshr miss rate for ReadReq accesses
system.cpu00.dcache.ReadReq_mshr_miss_rate::total     0.052393                       # mshr miss rate for ReadReq accesses
system.cpu00.dcache.WriteReq_mshr_miss_rate::cpu00.data     0.060199                       # mshr miss rate for WriteReq accesses
system.cpu00.dcache.WriteReq_mshr_miss_rate::total     0.060199                       # mshr miss rate for WriteReq accesses
system.cpu00.dcache.LoadLockedReq_mshr_miss_rate::cpu00.data     0.140234                       # mshr miss rate for LoadLockedReq accesses
system.cpu00.dcache.LoadLockedReq_mshr_miss_rate::total     0.140234                       # mshr miss rate for LoadLockedReq accesses
system.cpu00.dcache.StoreCondReq_mshr_miss_rate::cpu00.data     0.016057                       # mshr miss rate for StoreCondReq accesses
system.cpu00.dcache.StoreCondReq_mshr_miss_rate::total     0.016057                       # mshr miss rate for StoreCondReq accesses
system.cpu00.dcache.demand_mshr_miss_rate::cpu00.data     0.055832                       # mshr miss rate for demand accesses
system.cpu00.dcache.demand_mshr_miss_rate::total     0.055832                       # mshr miss rate for demand accesses
system.cpu00.dcache.overall_mshr_miss_rate::cpu00.data     0.055832                       # mshr miss rate for overall accesses
system.cpu00.dcache.overall_mshr_miss_rate::total     0.055832                       # mshr miss rate for overall accesses
system.cpu00.dcache.ReadReq_avg_mshr_miss_latency::cpu00.data 32266.560000                       # average ReadReq mshr miss latency
system.cpu00.dcache.ReadReq_avg_mshr_miss_latency::total 32266.560000                       # average ReadReq mshr miss latency
system.cpu00.dcache.WriteReq_avg_mshr_miss_latency::cpu00.data 160034.675460                       # average WriteReq mshr miss latency
system.cpu00.dcache.WriteReq_avg_mshr_miss_latency::total 160034.675460                       # average WriteReq mshr miss latency
[...]
system.tol2bus.pkt_count_system.cpu06.dcache.mem_side::system.l2.cpu_side         3341                       # Packet count per connected master and slave (bytes)
system.tol2bus.pkt_count_system.cpu07.icache.mem_side::system.l2.cpu_side         2248                       # Packet count per connected master and slave (bytes)
system.tol2bus.pkt_count_system.cpu07.dcache.mem_side::system.l2.cpu_side         2796                       # Packet count per connected master and slave (bytes)
system.tol2bus.pkt_count_system.cpu08.icache.mem_side::system.l2.cpu_side         1017                       # Packet count per connected master and slave (bytes)
system.tol2bus.pkt_count_system.cpu08.dcache.mem_side::system.l2.cpu_side         1257                       # Packet count per connected master and slave (bytes)
system.tol2bus.pkt_count_system.cpu09.icache.mem_side::system.l2.cpu_side         2366                       # Packet count per connected master and slave (bytes)
system.tol2bus.pkt_count_system.cpu09.dcache.mem_side::system.l2.cpu_side         3270                       # Packet count per connected master and slave (bytes)
system.tol2bus.pkt_count_system.cpu10.icache.mem_side::system.l2.cpu_side         1537                       # Packet count per connected master and slave (bytes)
system.tol2bus.pkt_count_system.cpu10.dcache.mem_side::system.l2.cpu_side         1653                       # Packet count per connected master and slave (bytes)
system.tol2bus.pkt_count_system.cpu11.icache.mem_side::system.l2.cpu_side         2255                       # Packet count per connected master and slave (bytes)
system.tol2bus.pkt_count_system.cpu11.dcache.mem_side::system.l2.cpu_side         3098                       # Packet count per connected master and slave (bytes)
system.tol2bus.pkt_count_system.cpu12.icache.mem_side::system.l2.cpu_side          931                       # Packet count per connected master and slave (bytes)
system.tol2bus.pkt_count_system.cpu12.dcache.mem_side::system.l2.cpu_side         1320                       # Packet count per connected master and slave (bytes)
system.tol2bus.pkt_count_system.cpu13.icache.mem_side::system.l2.cpu_side         2508                       # Packet count per connected master and slave (bytes)
system.tol2bus.pkt_count_system.cpu13.dcache.mem_side::system.l2.cpu_side         3321                       # Packet count per connected master and slave (bytes)
system.tol2bus.pkt_count_system.cpu14.icache.mem_side::system.l2.cpu_side         2340                       # Packet count per connected master and slave (bytes)
system.tol2bus.pkt_count_system.cpu14.dcache.mem_side::system.l2.cpu_side         2555                       # Packet count per connected master and slave (bytes)
system.tol2bus.pkt_count_system.cpu15.icache.mem_side::system.l2.cpu_side         2186                       # Packet count per connected master and slave (bytes)
system.tol2bus.pkt_count_system.cpu15.dcache.mem_side::system.l2.cpu_side         2544                       # Packet count per connected master and slave (bytes)
system.tol2bus.pkt_count::total                135653                       # Packet count per connected master and slave (bytes)
system.tol2bus.pkt_size_system.cpu00.icache.mem_side::system.l2.cpu_side       983808                       # Cumulative packet size per connected master and slave (bytes)
system.tol2bus.pkt_size_system.cpu00.dcache.mem_side::system.l2.cpu_side      1636480                       # Cumulative packet size per connected master and slave (bytes)
system.tol2bus.pkt_size_system.cpu01.icache.mem_side::system.l2.cpu_side        94528                       # Cumulative packet size per connected master and slave (bytes)
system.tol2bus.pkt_size_system.cpu01.dcache.mem_side::system.l2.cpu_side        73536                       # Cumulative packet size per connected master and slave (bytes)
system.tol2bus.pkt_size_system.cpu02.icache.mem_side::system.l2.cpu_side        95488                       # Cumulative packet size per connected master and slave (bytes)
system.tol2bus.pkt_size_system.cpu02.dcache.mem_side::system.l2.cpu_side        63808                       # Cumulative packet size per connected master and slave (bytes)
system.tol2bus.pkt_size_system.cpu03.icache.mem_side::system.l2.cpu_side        60096                       # Cumulative packet size per connected master and slave (bytes)
system.tol2bus.pkt_size_system.cpu03.dcache.mem_side::system.l2.cpu_side        41984                       # Cumulative packet size per connected master and slave (bytes)
system.tol2bus.pkt_size_system.cpu04.icache.mem_side::system.l2.cpu_side        87168                       # Cumulative packet size per connected master and slave (bytes)
system.tol2bus.pkt_size_system.cpu04.dcache.mem_side::system.l2.cpu_side        72896                       # Cumulative packet size per connected master and slave (bytes)
system.tol2bus.pkt_size_system.cpu05.icache.mem_side::system.l2.cpu_side        43776                       # Cumulative packet size per connected master and slave (bytes)
system.tol2bus.pkt_size_system.cpu05.dcache.mem_side::system.l2.cpu_side        34944                       # Cumulative packet size per connected master and slave (bytes)
system.tol2bus.pkt_size_system.cpu06.icache.mem_side::system.l2.cpu_side       100224                       # Cumulative packet size per connected master and slave (bytes)
system.tol2bus.pkt_size_system.cpu06.dcache.mem_side::system.l2.cpu_side        76864                       # Cumulative packet size per connected master and slave (bytes)
system.tol2bus.pkt_size_system.cpu07.icache.mem_side::system.l2.cpu_side        85760                       # Cumulative packet size per connected master and slave (bytes)
system.tol2bus.pkt_size_system.cpu07.dcache.mem_side::system.l2.cpu_side        66368                       # Cumulative packet size per connected master and slave (bytes)
system.tol2bus.pkt_size_system.cpu08.icache.mem_side::system.l2.cpu_side        35072                       # Cumulative packet size per connected master and slave (bytes)
system.tol2bus.pkt_size_system.cpu08.dcache.mem_side::system.l2.cpu_side        37760                       # Cumulative packet size per connected master and slave (bytes)
system.tol2bus.pkt_size_system.cpu09.icache.mem_side::system.l2.cpu_side        90624                       # Cumulative packet size per connected master and slave (bytes)
system.tol2bus.pkt_size_system.cpu09.dcache.mem_side::system.l2.cpu_side        74496                       # Cumulative packet size per connected master and slave (bytes)
system.tol2bus.pkt_size_system.cpu10.icache.mem_side::system.l2.cpu_side        55936                       # Cumulative packet size per connected master and slave (bytes)
system.tol2bus.pkt_size_system.cpu10.dcache.mem_side::system.l2.cpu_side        49664                       # Cumulative packet size per connected master and slave (bytes)
system.tol2bus.pkt_size_system.cpu11.icache.mem_side::system.l2.cpu_side        86400                       # Cumulative packet size per connected master and slave (bytes)
system.tol2bus.pkt_size_system.cpu11.dcache.mem_side::system.l2.cpu_side        70912                       # Cumulative packet size per connected master and slave (bytes)
system.tol2bus.pkt_size_system.cpu12.icache.mem_side::system.l2.cpu_side        31616                       # Cumulative packet size per connected master and slave (bytes)
system.tol2bus.pkt_size_system.cpu12.dcache.mem_side::system.l2.cpu_side        42496                       # Cumulative packet size per connected master and slave (bytes)
system.tol2bus.pkt_size_system.cpu13.icache.mem_side::system.l2.cpu_side        97088                       # Cumulative packet size per connected master and slave (bytes)
system.tol2bus.pkt_size_system.cpu13.dcache.mem_side::system.l2.cpu_side        79424                       # Cumulative packet size per connected master and slave (bytes)
system.tol2bus.pkt_size_system.cpu14.icache.mem_side::system.l2.cpu_side        89664                       # Cumulative packet size per connected master and slave (bytes)
system.tol2bus.pkt_size_system.cpu14.dcache.mem_side::system.l2.cpu_side        68672                       # Cumulative packet size per connected master and slave (bytes)
system.tol2bus.pkt_size_system.cpu15.icache.mem_side::system.l2.cpu_side        83008                       # Cumulative packet size per connected master and slave (bytes)
system.tol2bus.pkt_size_system.cpu15.dcache.mem_side::system.l2.cpu_side        62976                       # Cumulative packet size per connected master and slave (bytes)
system.tol2bus.pkt_size::total                4673536                       # Cumulative packet size per connected master and slave (bytes)
system.tol2bus.snoops                            8540                       # Total snoops (count)
system.tol2bus.snoop_fanout::samples            53750                       # Request fanout histogram
system.tol2bus.snoop_fanout::mean            2.205526                       # Request fanout histogram
system.tol2bus.snoop_fanout::stdev           3.794446                       # Request fanout histogram
system.tol2bus.snoop_fanout::underflows             0      0.00%      0.00% # Request fanout histogram
system.tol2bus.snoop_fanout::0                  30725     57.16%     57.16% # Request fanout histogram
system.tol2bus.snoop_fanout::1                   7261     13.51%     70.67% # Request fanout histogram
system.tol2bus.snoop_fanout::2                   2411      4.49%     75.16% # Request fanout histogram
system.tol2bus.snoop_fanout::3                   1509      2.81%     77.96% # Request fanout histogram
system.tol2bus.snoop_fanout::4                   1356      2.52%     80.49% # Request fanout histogram
system.tol2bus.snoop_fanout::5                   1278      2.38%     82.87% # Request fanout histogram
system.tol2bus.snoop_fanout::6                   1236      2.30%     85.16% # Request fanout histogram
system.tol2bus.snoop_fanout::7                   1209      2.25%     87.41% # Request fanout histogram
system.tol2bus.snoop_fanout::8                   1142      2.12%     89.54% # Request fanout histogram
system.tol2bus.snoop_fanout::9                   1062      1.98%     91.51% # Request fanout histogram
system.tol2bus.snoop_fanout::10                   896      1.67%     93.18% # Request fanout histogram
system.tol2bus.snoop_fanout::11                   881      1.64%     94.82% # Request fanout histogram
system.tol2bus.snoop_fanout::12                   868      1.61%     96.44% # Request fanout histogram
system.tol2bus.snoop_fanout::13                   752      1.40%     97.83% # Request fanout histogram
system.tol2bus.snoop_fanout::14                   755      1.40%     99.24% # Request fanout histogram
system.tol2bus.snoop_fanout::15                   407      0.76%    100.00% # Request fanout histogram
system.tol2bus.snoop_fanout::16                     2      0.00%    100.00% # Request fanout histogram
system.tol2bus.snoop_fanout::17                     0      0.00%    100.00% # Request fanout histogram
system.tol2bus.snoop_fanout::18                     0      0.00%    100.00% # Request fanout histogram
system.tol2bus.snoop_fanout::19                     0      0.00%    100.00% # Request fanout histogram
system.tol2bus.snoop_fanout::20                     0      0.00%    100.00% # Request fanout histogram
system.tol2bus.snoop_fanout::21                     0      0.00%    100.00% # Request fanout histogram
system.tol2bus.snoop_fanout::22                     0      0.00%    100.00% # Request fanout histogram
system.tol2bus.snoop_fanout::23                     0      0.00%    100.00% # Request fanout histogram
system.tol2bus.snoop_fanout::24                     0      0.00%    100.00% # Request fanout histogram
system.tol2bus.snoop_fanout::25                     0      0.00%    100.00% # Request fanout histogram
system.tol2bus.snoop_fanout::26                     0      0.00%    100.00% # Request fanout histogram
system.tol2bus.snoop_fanout::27                     0      0.00%    100.00% # Request fanout histogram
system.tol2bus.snoop_fanout::28                     0      0.00%    100.00% # Request fanout histogram
system.tol2bus.snoop_fanout::29                     0      0.00%    100.00% # Request fanout histogram
system.tol2bus.snoop_fanout::30                     0      0.00%    100.00% # Request fanout histogram
system.tol2bus.snoop_fanout::31                     0      0.00%    100.00% # Request fanout histogram
system.tol2bus.snoop_fanout::32                     0      0.00%    100.00% # Request fanout histogram
system.tol2bus.snoop_fanout::overflows              0      0.00%    100.00% # Request fanout histogram
system.tol2bus.snoop_fanout::min_value              0                       # Request fanout histogram
system.tol2bus.snoop_fanout::max_value             16                       # Request fanout histogram
system.tol2bus.snoop_fanout::total              53750                       # Request fanout histogram
system.tol2bus.reqLayer0.occupancy          172002792                       # Layer occupancy (ticks)
system.tol2bus.reqLayer0.utilization             13.7                       # Layer utilization (%)
system.tol2bus.respLayer0.occupancy          27989052                       # Layer occupancy (ticks)
system.tol2bus.respLayer0.utilization             2.2                       # Layer utilization (%)
system.tol2bus.respLayer1.occupancy          52934712                       # Layer occupancy (ticks)
system.tol2bus.respLayer1.utilization             4.2                       # Layer utilization (%)
system.tol2bus.respLayer2.occupancy           3506874                       # Layer occupancy (ticks)
system.tol2bus.respLayer2.utilization             0.3                       # Layer utilization (%)
system.tol2bus.respLayer3.occupancy           4471452                       # Layer occupancy (ticks)
system.tol2bus.respLayer3.utilization             0.4                       # Layer utilization (%)
system.tol2bus.respLayer4.occupancy           3511948                       # Layer occupancy (ticks)
system.tol2bus.respLayer4.utilization             0.3                       # Layer utilization (%)
system.tol2bus.respLayer5.occupancy           4132572                       # Layer occupancy (ticks)
system.tol2bus.respLayer5.utilization             0.3                       # Layer utilization (%)
system.tol2bus.respLayer6.occupancy           2521238                       # Layer occupancy (ticks)
system.tol2bus.respLayer6.utilization             0.2                       # Layer utilization (%)
system.tol2bus.respLayer7.occupancy           2572865                       # Layer occupancy (ticks)
system.tol2bus.respLayer7.utilization             0.2                       # Layer utilization (%)
system.tol2bus.respLayer8.occupancy           3283105                       # Layer occupancy (ticks)
system.tol2bus.respLayer8.utilization             0.3                       # Layer utilization (%)
system.tol2bus.respLayer9.occupancy           4822333                       # Layer occupancy (ticks)
system.tol2bus.respLayer9.utilization             0.4                       # Layer utilization (%)
system.tol2bus.respLayer10.occupancy          2016925                       # Layer occupancy (ticks)
system.tol2bus.respLayer10.utilization            0.2                       # Layer utilization (%)
system.tol2bus.respLayer11.occupancy          1824192                       # Layer occupancy (ticks)
system.tol2bus.respLayer11.utilization            0.1                       # Layer utilization (%)
system.tol2bus.respLayer12.occupancy          3623964                       # Layer occupancy (ticks)
system.tol2bus.respLayer12.utilization            0.3                       # Layer utilization (%)
system.tol2bus.respLayer13.occupancy          5049390                       # Layer occupancy (ticks)
system.tol2bus.respLayer13.utilization            0.4                       # Layer utilization (%)
system.tol2bus.respLayer14.occupancy          3248968                       # Layer occupancy (ticks)
system.tol2bus.respLayer14.utilization            0.3                       # Layer utilization (%)
system.tol2bus.respLayer15.occupancy          4185079                       # Layer occupancy (ticks)
system.tol2bus.respLayer15.utilization            0.3                       # Layer utilization (%)
system.tol2bus.respLayer16.occupancy          1695234                       # Layer occupancy (ticks)
system.tol2bus.respLayer16.utilization            0.1                       # Layer utilization (%)
system.tol2bus.respLayer17.occupancy          1754116                       # Layer occupancy (ticks)
system.tol2bus.respLayer17.utilization            0.1                       # Layer utilization (%)
system.tol2bus.respLayer18.occupancy          3381254                       # Layer occupancy (ticks)
system.tol2bus.respLayer18.utilization            0.3                       # Layer utilization (%)
system.tol2bus.respLayer19.occupancy          4850249                       # Layer occupancy (ticks)
system.tol2bus.respLayer19.utilization            0.4                       # Layer utilization (%)
system.tol2bus.respLayer20.occupancy          2382019                       # Layer occupancy (ticks)
system.tol2bus.respLayer20.utilization            0.2                       # Layer utilization (%)
system.tol2bus.respLayer21.occupancy          2323751                       # Layer occupancy (ticks)
system.tol2bus.respLayer21.utilization            0.2                       # Layer utilization (%)
system.tol2bus.respLayer22.occupancy          3219453                       # Layer occupancy (ticks)
system.tol2bus.respLayer22.utilization            0.3                       # Layer utilization (%)
system.tol2bus.respLayer23.occupancy          4658287                       # Layer occupancy (ticks)
system.tol2bus.respLayer23.utilization            0.4                       # Layer utilization (%)
system.tol2bus.respLayer24.occupancy          1578560                       # Layer occupancy (ticks)
system.tol2bus.respLayer24.utilization            0.1                       # Layer utilization (%)
system.tol2bus.respLayer25.occupancy          1761160                       # Layer occupancy (ticks)
system.tol2bus.respLayer25.utilization            0.1                       # Layer utilization (%)
system.tol2bus.respLayer26.occupancy          3544494                       # Layer occupancy (ticks)
system.tol2bus.respLayer26.utilization            0.3                       # Layer utilization (%)
system.tol2bus.respLayer27.occupancy          4997672                       # Layer occupancy (ticks)
system.tol2bus.respLayer27.utilization            0.4                       # Layer utilization (%)
system.tol2bus.respLayer28.occupancy          3381674                       # Layer occupancy (ticks)
system.tol2bus.respLayer28.utilization            0.3                       # Layer utilization (%)
system.tol2bus.respLayer29.occupancy          3650533                       # Layer occupancy (ticks)
system.tol2bus.respLayer29.utilization            0.3                       # Layer utilization (%)
system.tol2bus.respLayer30.occupancy          3154164                       # Layer occupancy (ticks)
system.tol2bus.respLayer30.utilization            0.3                       # Layer utilization (%)
system.tol2bus.respLayer31.occupancy          3851306                       # Layer occupancy (ticks)
system.tol2bus.respLayer31.utilization            0.3                       # Layer utilization (%)

---------- End Simulation Statistics   ----------
