
---------- Begin Simulation Statistics ----------
sim_seconds                                  0.001275                       # Number of seconds simulated
sim_ticks                                  1274693247                       # Number of ticks simulated
final_tick                                 1274693247                       # Number of ticks from beginning of simulation (restored from checkpoints and never reset)
sim_freq                                 1000000000000                       # Frequency of simulated ticks
host_inst_rate                                 220950                       # Simulator instruction rate (inst/s)
host_op_rate                                   220950                       # Simulator op (including micro ops) rate (op/s)
host_tick_rate                              127766065                       # Simulator tick rate (ticks/s)
host_mem_usage                                 694852                       # Number of bytes of host memory used
host_seconds                                     9.98                       # Real time elapsed on the host
sim_insts                                     2204367                       # Number of instructions simulated
sim_ops                                       2204367                       # Number of ops (including micro ops) simulated
system.voltage_domain.voltage                       1                       # Voltage in Volts
system.clk_domain.clock                          1000                       # Clock period in ticks
system.mem_ctrls.bytes_read::cpu00.inst        124032                       # Number of bytes read from this memory
system.mem_ctrls.bytes_read::cpu00.data        378432                       # Number of bytes read from this memory
system.mem_ctrls.bytes_read::cpu01.inst         11648                       # Number of bytes read from this memory
system.mem_ctrls.bytes_read::cpu01.data          8064                       # Number of bytes read from this memory
system.mem_ctrls.bytes_read::cpu02.inst          1216                       # Number of bytes read from this memory
system.mem_ctrls.bytes_read::cpu02.data          6528                       # Number of bytes read from this memory
system.mem_ctrls.bytes_read::cpu03.inst          3456                       # Number of bytes read from this memory
system.mem_ctrls.bytes_read::cpu03.data          6720                       # Number of bytes read from this memory
system.mem_ctrls.bytes_read::cpu04.inst          3200                       # Number of bytes read from this memory
system.mem_ctrls.bytes_read::cpu04.data          6336                       # Number of bytes read from this memory
system.mem_ctrls.bytes_read::cpu05.inst           512                       # Number of bytes read from this memory
system.mem_ctrls.bytes_read::cpu05.data          6784                       # Number of bytes read from this memory
system.mem_ctrls.bytes_read::cpu06.inst           320                       # Number of bytes read from this memory
system.mem_ctrls.bytes_read::cpu06.data          6528                       # Number of bytes read from this memory
system.mem_ctrls.bytes_read::cpu07.inst           448                       # Number of bytes read from this memory
system.mem_ctrls.bytes_read::cpu07.data          5312                       # Number of bytes read from this memory
system.mem_ctrls.bytes_read::cpu08.inst           768                       # Number of bytes read from this memory
system.mem_ctrls.bytes_read::cpu08.data          5888                       # Number of bytes read from this memory
system.mem_ctrls.bytes_read::cpu09.inst           384                       # Number of bytes read from this memory
system.mem_ctrls.bytes_read::cpu09.data          6464                       # Number of bytes read from this memory
system.mem_ctrls.bytes_read::cpu10.inst          1664                       # Number of bytes read from this memory
system.mem_ctrls.bytes_read::cpu10.data          5568                       # Number of bytes read from this memory
system.mem_ctrls.bytes_read::cpu11.inst          1280                       # Number of bytes read from this memory
system.mem_ctrls.bytes_read::cpu11.data          6464                       # Number of bytes read from this memory
system.mem_ctrls.bytes_read::cpu12.inst          3328                       # Number of bytes read from this memory
system.mem_ctrls.bytes_read::cpu12.data          7296                       # Number of bytes read from this memory
system.mem_ctrls.bytes_read::cpu13.inst           704                       # Number of bytes read from this memory
system.mem_ctrls.bytes_read::cpu13.data          5696                       # Number of bytes read from this memory
system.mem_ctrls.bytes_read::cpu14.inst           128                       # Number of bytes read from this memory
system.mem_ctrls.bytes_read::cpu14.data          5632                       # Number of bytes read from this memory
system.mem_ctrls.bytes_read::cpu15.inst          1088                       # Number of bytes read from this memory
system.mem_ctrls.bytes_read::cpu15.data          4928                       # Number of bytes read from this memory
system.mem_ctrls.bytes_read::total             626816                       # Number of bytes read from this memory
system.mem_ctrls.bytes_inst_read::cpu00.inst       124032                       # Number of instructions bytes read from this memory
system.mem_ctrls.bytes_inst_read::cpu01.inst        11648                       # Number of instructions bytes read from this memory
system.mem_ctrls.bytes_inst_read::cpu02.inst         1216                       # Number of instructions bytes read from this memory
system.mem_ctrls.bytes_inst_read::cpu03.inst         3456                       # Number of instructions bytes read from this memory
system.mem_ctrls.bytes_inst_read::cpu04.inst         3200                       # Number of instructions bytes read from this memory
system.mem_ctrls.bytes_inst_read::cpu05.inst          512                       # Number of instructions bytes read from this memory
system.mem_ctrls.bytes_inst_read::cpu06.inst          320                       # Number of instructions bytes read from this memory
system.mem_ctrls.bytes_inst_read::cpu07.inst          448                       # Number of instructions bytes read from this memory
system.mem_ctrls.bytes_inst_read::cpu08.inst          768                       # Number of instructions bytes read from this memory
system.mem_ctrls.bytes_inst_read::cpu09.inst          384                       # Number of instructions bytes read from this memory
system.mem_ctrls.bytes_inst_read::cpu10.inst         1664                       # Number of instructions bytes read from this memory
system.mem_ctrls.bytes_inst_read::cpu11.inst         1280                       # Number of instructions bytes read from this memory
system.mem_ctrls.bytes_inst_read::cpu12.inst         3328                       # Number of instructions bytes read from this memory
system.mem_ctrls.bytes_inst_read::cpu13.inst          704                       # Number of instructions bytes read from this memory
system.mem_ctrls.bytes_inst_read::cpu14.inst          128                       # Number of instructions bytes read from this memory
system.mem_ctrls.bytes_inst_read::cpu15.inst         1088                       # Number of instructions bytes read from this memory
system.mem_ctrls.bytes_inst_read::total        154176                       # Number of instructions bytes read from this memory
system.mem_ctrls.bytes_written::writebacks        86144                       # Number of bytes written to this memory
system.mem_ctrls.bytes_written::total           86144                       # Number of bytes written to this memory
system.mem_ctrls.num_reads::cpu00.inst           1938                       # Number of read requests responded to by this memory
system.mem_ctrls.num_reads::cpu00.data           5913                       # Number of read requests responded to by this memory
system.mem_ctrls.num_reads::cpu01.inst            182                       # Number of read requests responded to by this memory
system.mem_ctrls.num_reads::cpu01.data            126                       # Number of read requests responded to by this memory
system.mem_ctrls.num_reads::cpu02.inst             19                       # Number of read requests responded to by this memory
system.mem_ctrls.num_reads::cpu02.data            102                       # Number of read requests responded to by this memory
system.mem_ctrls.num_reads::cpu03.inst             54                       # Number of read requests responded to by this memory
system.mem_ctrls.num_reads::cpu03.data            105                       # Number of read requests responded to by this memory
system.mem_ctrls.num_reads::cpu04.inst             50                       # Number of read requests responded to by this memory
system.mem_ctrls.num_reads::cpu04.data             99                       # Number of read requests responded to by this memory
system.mem_ctrls.num_reads::cpu05.inst              8                       # Number of read requests responded to by this memory
system.mem_ctrls.num_reads::cpu05.data            106                       # Number of read requests responded to by this memory
system.mem_ctrls.num_reads::cpu06.inst              5                       # Number of read requests responded to by this memory
system.mem_ctrls.num_reads::cpu06.data            102                       # Number of read requests responded to by this memory
system.mem_ctrls.num_reads::cpu07.inst              7                       # Number of read requests responded to by this memory
system.mem_ctrls.num_reads::cpu07.data             83                       # Number of read requests responded to by this memory
system.mem_ctrls.num_reads::cpu08.inst             12                       # Number of read requests responded to by this memory
system.mem_ctrls.num_reads::cpu08.data             92                       # Number of read requests responded to by this memory
system.mem_ctrls.num_reads::cpu09.inst              6                       # Number of read requests responded to by this memory
system.mem_ctrls.num_reads::cpu09.data            101                       # Number of read requests responded to by this memory
system.mem_ctrls.num_reads::cpu10.inst             26                       # Number of read requests responded to by this memory
system.mem_ctrls.num_reads::cpu10.data             87                       # Number of read requests responded to by this memory
system.mem_ctrls.num_reads::cpu11.inst             20                       # Number of read requests responded to by this memory
system.mem_ctrls.num_reads::cpu11.data            101                       # Number of read requests responded to by this memory
system.mem_ctrls.num_reads::cpu12.inst             52                       # Number of read requests responded to by this memory
system.mem_ctrls.num_reads::cpu12.data            114                       # Number of read requests responded to by this memory
system.mem_ctrls.num_reads::cpu13.inst             11                       # Number of read requests responded to by this memory
system.mem_ctrls.num_reads::cpu13.data             89                       # Number of read requests responded to by this memory
system.mem_ctrls.num_reads::cpu14.inst              2                       # Number of read requests responded to by this memory
system.mem_ctrls.num_reads::cpu14.data             88                       # Number of read requests responded to by this memory
system.mem_ctrls.num_reads::cpu15.inst             17                       # Number of read requests responded to by this memory
system.mem_ctrls.num_reads::cpu15.data             77                       # Number of read requests responded to by this memory
system.mem_ctrls.num_reads::total                9794                       # Number of read requests responded to by this memory
system.mem_ctrls.num_writes::writebacks          1346                       # Number of write requests responded to by this memory
system.mem_ctrls.num_writes::total               1346                       # Number of write requests responded to by this memory
system.mem_ctrls.bw_read::cpu00.inst         97303410                       # Total read bandwidth from this memory (bytes/s)
system.mem_ctrls.bw_read::cpu00.data        296880839                       # Total read bandwidth from this memory (bytes/s)
system.mem_ctrls.bw_read::cpu01.inst          9137885                       # Total read bandwidth from this memory (bytes/s)
system.mem_ctrls.bw_read::cpu01.data          6326228                       # Total read bandwidth from this memory (bytes/s)
system.mem_ctrls.bw_read::cpu02.inst           953955                       # Total read bandwidth from this memory (bytes/s)
system.mem_ctrls.bw_read::cpu02.data          5121232                       # Total read bandwidth from this memory (bytes/s)
system.mem_ctrls.bw_read::cpu03.inst          2711241                       # Total read bandwidth from this memory (bytes/s)
system.mem_ctrls.bw_read::cpu03.data          5271857                       # Total read bandwidth from this memory (bytes/s)
system.mem_ctrls.bw_read::cpu04.inst          2510408                       # Total read bandwidth from this memory (bytes/s)
system.mem_ctrls.bw_read::cpu04.data          4970608                       # Total read bandwidth from this memory (bytes/s)
system.mem_ctrls.bw_read::cpu05.inst           401665                       # Total read bandwidth from this memory (bytes/s)
system.mem_ctrls.bw_read::cpu05.data          5322065                       # Total read bandwidth from this memory (bytes/s)
system.mem_ctrls.bw_read::cpu06.inst           251041                       # Total read bandwidth from this memory (bytes/s)
system.mem_ctrls.bw_read::cpu06.data          5121232                       # Total read bandwidth from this memory (bytes/s)
system.mem_ctrls.bw_read::cpu07.inst           351457                       # Total read bandwidth from this memory (bytes/s)
system.mem_ctrls.bw_read::cpu07.data          4167277                       # Total read bandwidth from this memory (bytes/s)
system.mem_ctrls.bw_read::cpu08.inst           602498                       # Total read bandwidth from this memory (bytes/s)
system.mem_ctrls.bw_read::cpu08.data          4619151                       # Total read bandwidth from this memory (bytes/s)
system.mem_ctrls.bw_read::cpu09.inst           301249                       # Total read bandwidth from this memory (bytes/s)
system.mem_ctrls.bw_read::cpu09.data          5071024                       # Total read bandwidth from this memory (bytes/s)
system.mem_ctrls.bw_read::cpu10.inst          1305412                       # Total read bandwidth from this memory (bytes/s)
system.mem_ctrls.bw_read::cpu10.data          4368110                       # Total read bandwidth from this memory (bytes/s)
system.mem_ctrls.bw_read::cpu11.inst          1004163                       # Total read bandwidth from this memory (bytes/s)
system.mem_ctrls.bw_read::cpu11.data          5071024                       # Total read bandwidth from this memory (bytes/s)
system.mem_ctrls.bw_read::cpu12.inst          2610824                       # Total read bandwidth from this memory (bytes/s)
system.mem_ctrls.bw_read::cpu12.data          5723730                       # Total read bandwidth from this memory (bytes/s)
system.mem_ctrls.bw_read::cpu13.inst           552290                       # Total read bandwidth from this memory (bytes/s)
system.mem_ctrls.bw_read::cpu13.data          4468526                       # Total read bandwidth from this memory (bytes/s)
system.mem_ctrls.bw_read::cpu14.inst           100416                       # Total read bandwidth from this memory (bytes/s)
system.mem_ctrls.bw_read::cpu14.data          4418318                       # Total read bandwidth from this memory (bytes/s)
system.mem_ctrls.bw_read::cpu15.inst           853539                       # Total read bandwidth from this memory (bytes/s)
system.mem_ctrls.bw_read::cpu15.data          3866028                       # Total read bandwidth from this memory (bytes/s)
system.mem_ctrls.bw_read::total             491738700                       # Total read bandwidth from this memory (bytes/s)
system.mem_ctrls.bw_inst_read::cpu00.inst     97303410                       # Instruction read bandwidth from this memory (bytes/s)
system.mem_ctrls.bw_inst_read::cpu01.inst      9137885                       # Instruction read bandwidth from this memory (bytes/s)
system.mem_ctrls.bw_inst_read::cpu02.inst       953955                       # Instruction read bandwidth from this memory (bytes/s)
system.mem_ctrls.bw_inst_read::cpu03.inst      2711241                       # Instruction read bandwidth from this memory (bytes/s)
system.mem_ctrls.bw_inst_read::cpu04.inst      2510408                       # Instruction read bandwidth from this memory (bytes/s)
system.mem_ctrls.bw_inst_read::cpu05.inst       401665                       # Instruction read bandwidth from this memory (bytes/s)
system.mem_ctrls.bw_inst_read::cpu06.inst       251041                       # Instruction read bandwidth from this memory (bytes/s)
system.mem_ctrls.bw_inst_read::cpu07.inst       351457                       # Instruction read bandwidth from this memory (bytes/s)
system.mem_ctrls.bw_inst_read::cpu08.inst       602498                       # Instruction read bandwidth from this memory (bytes/s)
system.mem_ctrls.bw_inst_read::cpu09.inst       301249                       # Instruction read bandwidth from this memory (bytes/s)
system.mem_ctrls.bw_inst_read::cpu10.inst      1305412                       # Instruction read bandwidth from this memory (bytes/s)
system.mem_ctrls.bw_inst_read::cpu11.inst      1004163                       # Instruction read bandwidth from this memory (bytes/s)
system.mem_ctrls.bw_inst_read::cpu12.inst      2610824                       # Instruction read bandwidth from this memory (bytes/s)
system.mem_ctrls.bw_inst_read::cpu13.inst       552290                       # Instruction read bandwidth from this memory (bytes/s)
system.mem_ctrls.bw_inst_read::cpu14.inst       100416                       # Instruction read bandwidth from this memory (bytes/s)
system.mem_ctrls.bw_inst_read::cpu15.inst       853539                       # Instruction read bandwidth from this memory (bytes/s)
system.mem_ctrls.bw_inst_read::total        120951453                       # Instruction read bandwidth from this memory (bytes/s)
system.mem_ctrls.bw_write::writebacks        67580181                       # Write bandwidth from this memory (bytes/s)
system.mem_ctrls.bw_write::total             67580181                       # Write bandwidth from this memory (bytes/s)
system.mem_ctrls.bw_total::writebacks        67580181                       # Total bandwidth to/from this memory (bytes/s)
system.mem_ctrls.bw_total::cpu00.inst        97303410                       # Total bandwidth to/from this memory (bytes/s)
system.mem_ctrls.bw_total::cpu00.data       296880839                       # Total bandwidth to/from this memory (bytes/s)
system.mem_ctrls.bw_total::cpu01.inst         9137885                       # Total bandwidth to/from this memory (bytes/s)
system.mem_ctrls.bw_total::cpu01.data         6326228                       # Total bandwidth to/from this memory (bytes/s)
system.mem_ctrls.bw_total::cpu02.inst          953955                       # Total bandwidth to/from this memory (bytes/s)
system.mem_ctrls.bw_total::cpu02.data         5121232                       # Total bandwidth to/from this memory (bytes/s)
system.mem_ctrls.bw_total::cpu03.inst         2711241                       # Total bandwidth to/from this memory (bytes/s)
system.mem_ctrls.bw_total::cpu03.data         5271857                       # Total bandwidth to/from this memory (bytes/s)
system.mem_ctrls.bw_total::cpu04.inst         2510408                       # Total bandwidth to/from this memory (bytes/s)
system.mem_ctrls.bw_total::cpu04.data         4970608                       # Total bandwidth to/from this memory (bytes/s)
system.mem_ctrls.bw_total::cpu05.inst          401665                       # Total bandwidth to/from this memory (bytes/s)
system.mem_ctrls.bw_total::cpu05.data         5322065                       # Total bandwidth to/from this memory (bytes/s)
system.mem_ctrls.bw_total::cpu06.inst          251041                       # Total bandwidth to/from this memory (bytes/s)
system.mem_ctrls.bw_total::cpu06.data         5121232                       # Total bandwidth to/from this memory (bytes/s)
system.mem_ctrls.bw_total::cpu07.inst          351457                       # Total bandwidth to/from this memory (bytes/s)
system.mem_ctrls.bw_total::cpu07.data         4167277                       # Total bandwidth to/from this memory (bytes/s)
system.mem_ctrls.bw_total::cpu08.inst          602498                       # Total bandwidth to/from this memory (bytes/s)
system.mem_ctrls.bw_total::cpu08.data         4619151                       # Total bandwidth to/from this memory (bytes/s)
system.mem_ctrls.bw_total::cpu09.inst          301249                       # Total bandwidth to/from this memory (bytes/s)
system.mem_ctrls.bw_total::cpu09.data         5071024                       # Total bandwidth to/from this memory (bytes/s)
system.mem_ctrls.bw_total::cpu10.inst         1305412                       # Total bandwidth to/from this memory (bytes/s)
system.mem_ctrls.bw_total::cpu10.data         4368110                       # Total bandwidth to/from this memory (bytes/s)
system.mem_ctrls.bw_total::cpu11.inst         1004163                       # Total bandwidth to/from this memory (bytes/s)
system.mem_ctrls.bw_total::cpu11.data         5071024                       # Total bandwidth to/from this memory (bytes/s)
system.mem_ctrls.bw_total::cpu12.inst         2610824                       # Total bandwidth to/from this memory (bytes/s)
system.mem_ctrls.bw_total::cpu12.data         5723730                       # Total bandwidth to/from this memory (bytes/s)
system.mem_ctrls.bw_total::cpu13.inst          552290                       # Total bandwidth to/from this memory (bytes/s)
system.mem_ctrls.bw_total::cpu13.data         4468526                       # Total bandwidth to/from this memory (bytes/s)
system.mem_ctrls.bw_total::cpu14.inst          100416                       # Total bandwidth to/from this memory (bytes/s)
system.mem_ctrls.bw_total::cpu14.data         4418318                       # Total bandwidth to/from this memory (bytes/s)
system.mem_ctrls.bw_total::cpu15.inst          853539                       # Total bandwidth to/from this memory (bytes/s)
system.mem_ctrls.bw_total::cpu15.data         3866028                       # Total bandwidth to/from this memory (bytes/s)
system.mem_ctrls.bw_total::total            559318881                       # Total bandwidth to/from this memory (bytes/s)
system.cpu00.branchPred.lookups                133273                       # Number of BP lookups
system.cpu00.branchPred.condPredicted           74476                       # Number of conditional branches predicted
system.cpu00.branchPred.condIncorrect            5698                       # Number of conditional branches incorrect
system.cpu00.branchPred.BTBLookups              87773                       # Number of BTB lookups
system.cpu00.branchPred.BTBHits                 66698                       # Number of BTB hits
system.cpu00.branchPred.BTBCorrect                  0                       # Number of correct BTB predictions (this stat may not work properly.
system.cpu00.branchPred.BTBHitPct           75.989199                       # BTB Hit Percentage
system.cpu00.branchPred.usedRAS                 26478                       # Number of times the RAS was used to get a target.
system.cpu00.branchPred.RASInCorrect               94                       # Number of incorrect RAS predictions.
system.cpu00.branchPred.indirectLookups          3674                       # Number of indirect predictor lookups.
system.cpu00.branchPred.indirectHits             2893                       # Number of indirect target hits.
system.cpu00.branchPred.indirectMisses            781                       # Number of indirect misses.
system.cpu00.branchPredindirectMispredicted          256                       # Number of mispredicted indirect branches.
system.cpu_voltage_domain.voltage                   1                       # Voltage in Volts
system.cpu_clk_domain.clock                      1161                       # Clock period in ticks
system.cpu00.dtb.fetch_hits                         0                       # ITB hits
system.cpu00.dtb.fetch_misses                       0                       # ITB misses
system.cpu00.dtb.fetch_acv                          0                       # ITB acv
system.cpu00.dtb.fetch_accesses                     0                       # ITB accesses
system.cpu00.dtb.read_hits                     182429                       # DTB read hits
system.cpu00.dtb.read_misses                      618                       # DTB read misses
system.cpu00.dtb.read_acv                           0                       # DTB read access violations
system.cpu00.dtb.read_accesses                 183047                       # DTB read accesses
system.cpu00.dtb.write_hits                    127920                       # DTB write hits
system.cpu00.dtb.write_misses                    1018                       # DTB write misses
system.cpu00.dtb.write_acv                          0                       # DTB write access violations
system.cpu00.dtb.write_accesses                128938                       # DTB write accesses
system.cpu00.dtb.data_hits                     310349                       # DTB hits
system.cpu00.dtb.data_misses                     1636                       # DTB misses
system.cpu00.dtb.data_acv                           0                       # DTB access violations
system.cpu00.dtb.data_accesses                 311985                       # DTB accesses
system.cpu00.itb.fetch_hits                    149745                       # ITB hits
system.cpu00.itb.fetch_misses                     155                       # ITB misses
system.cpu00.itb.fetch_acv                          0                       # ITB acv
system.cpu00.itb.fetch_accesses                149900                       # ITB accesses
system.cpu00.itb.read_hits                          0                       # DTB read hits
system.cpu00.itb.read_misses                        0                       # DTB read misses
system.cpu00.itb.read_acv                           0                       # DTB read access violations
system.cpu00.itb.read_accesses                      0                       # DTB read accesses
system.cpu00.itb.write_hits                         0                       # DTB write hits
system.cpu00.itb.write_misses                       0                       # DTB write misses
system.cpu00.itb.write_acv                          0                       # DTB write access violations
system.cpu00.itb.write_accesses                     0                       # DTB write accesses
system.cpu00.itb.data_hits                          0                       # DTB hits
system.cpu00.itb.data_misses                        0                       # DTB misses
system.cpu00.itb.data_acv                           0                       # DTB access violations
system.cpu00.itb.data_accesses                      0                       # DTB accesses
system.cpu00.workload.num_syscalls               2128                       # Number of system calls
system.cpu00.numCycles                        1025785                       # number of cpu cycles simulated
system.cpu00.numWorkItemsStarted                    0                       # number of work items this cpu started
system.cpu00.numWorkItemsCompleted                  0                       # number of work items this cpu completed
system.cpu00.fetch.icacheStallCycles            77986                       # Number of cycles fetch is stalled on an Icache miss
system.cpu00.fetch.Insts                      1193089                       # Number of instructions fetch has processed
system.cpu00.fetch.Branches                    133273                       # Number of branches that fetch encountered
system.cpu00.fetch.predictedBranches            96069                       # Number of branches that fetch has predicted taken
system.cpu00.fetch.Cycles                      728134                       # Number of cycles fetch has run and was not squashing or blocked
system.cpu00.fetch.SquashCycles                 12764                       # Number of cycles fetch has spent squashing
system.cpu00.fetch.MiscStallCycles                414                       # Number of cycles fetch has spent waiting on interrupts, or bad addresses, or out of MSHRs
system.cpu00.fetch.PendingTrapStallCycles         6147                       # Number of stall cycles due to pending traps
system.cpu00.fetch.IcacheWaitRetryStallCycles          636                       # Number of stall cycles due to full MSHR
system.cpu00.fetch.CacheLines                  149745                       # Number of cache lines fetched
system.cpu00.fetch.IcacheSquashes                2600                       # Number of outstanding Icache misses that were squashed
system.cpu00.fetch.rateDist::samples           819699                       # Number of instructions fetched each cycle (Total)
system.cpu00.fetch.rateDist::mean            1.455521                       # Number of instructions fetched each cycle (Total)
system.cpu00.fetch.rateDist::stdev           2.718404                       # Number of instructions fetched each cycle (Total)
system.cpu00.fetch.rateDist::underflows             0      0.00%      0.00% # Number of instructions fetched each cycle (Total)
system.cpu00.fetch.rateDist::0                 600333     73.24%     73.24% # Number of instructions fetched each cycle (Total)
system.cpu00.fetch.rateDist::1                  16414      2.00%     75.24% # Number of instructions fetched each cycle (Total)
system.cpu00.fetch.rateDist::2                  18624      2.27%     77.51% # Number of instructions fetched each cycle (Total)
system.cpu00.fetch.rateDist::3                  17389      2.12%     79.63% # Number of instructions fetched each cycle (Total)
system.cpu00.fetch.rateDist::4                  37681      4.60%     84.23% # Number of instructions fetched each cycle (Total)
system.cpu00.fetch.rateDist::5                  16056      1.96%     86.19% # Number of instructions fetched each cycle (Total)
system.cpu00.fetch.rateDist::6                  18836      2.30%     88.49% # Number of instructions fetched each cycle (Total)
system.cpu00.fetch.rateDist::7                  11688      1.43%     89.91% # Number of instructions fetched each cycle (Total)
system.cpu00.fetch.rateDist::8                  82678     10.09%    100.00% # Number of instructions fetched each cycle (Total)
system.cpu00.fetch.rateDist::overflows              0      0.00%    100.00% # Number of instructions fetched each cycle (Total)
system.cpu00.fetch.rateDist::min_value              0                       # Number of instructions fetched each cycle (Total)
system.cpu00.fetch.rateDist::max_value              8                       # Number of instructions fetched each cycle (Total)
system.cpu00.fetch.rateDist::total             819699                       # Number of instructions fetched each cycle (Total)
system.cpu00.fetch.branchRate                0.129923                       # Number of branch fetches per cycle
system.cpu00.fetch.rate                      1.163099                       # Number of inst fetches per cycle
system.cpu00.decode.IdleCycles                  86632                       # Number of cycles decode is idle
system.cpu00.decode.BlockedCycles              565811                       # Number of cycles decode is blocked
system.cpu00.decode.RunCycles                  128014                       # Number of cycles decode is running
system.cpu00.decode.UnblockCycles               34599                       # Number of cycles decode is unblocking
system.cpu00.decode.SquashCycles                 4643                       # Number of cycles decode is squashing
system.cpu00.decode.BranchResolved              26415                       # Number of times decode resolved a branch
system.cpu00.decode.BranchMispred                1790                       # Number of times decode detected a branch misprediction
system.cpu00.decode.DecodedInsts              1125095                       # Number of instructions handled by decode
system.cpu00.decode.SquashedInsts                7234                       # Number of squashed instructions handled by decode
system.cpu00.rename.SquashCycles                 4643                       # Number of cycles rename is squashing
system.cpu00.rename.IdleCycles                 102879                       # Number of cycles rename is idle
system.cpu00.rename.BlockCycles                100775                       # Number of cycles rename is blocking
system.cpu00.rename.serializeStallCycles       220614                       # count of cycles rename stalled for serializing inst
system.cpu00.rename.RunCycles                  146322                       # Number of cycles rename is running
system.cpu00.rename.UnblockCycles              244466                       # Number of cycles rename is unblocking
system.cpu00.rename.RenamedInsts              1105314                       # Number of instructions processed by rename
system.cpu00.rename.ROBFullEvents                3020                       # Number of times rename has blocked due to ROB full
system.cpu00.rename.IQFullEvents                24491                       # Number of times rename has blocked due to IQ full
system.cpu00.rename.LQFullEvents                 2222                       # Number of times rename has blocked due to LQ full
system.cpu00.rename.SQFullEvents               207183                       # Number of times rename has blocked due to SQ full
system.cpu00.rename.RenamedOperands            758006                       # Number of destination operands rename has renamed
system.cpu00.rename.RenameLookups             1368987                       # Number of register rename lookups that rename has made
system.cpu00.rename.int_rename_lookups        1211076                       # Number of integer rename lookups
system.cpu00.rename.fp_rename_lookups          155624                       # Number of floating rename lookups
system.cpu00.rename.CommittedMaps              668767                       # Number of HB maps that are committed
system.cpu00.rename.UndoneMaps                  89239                       # Number of HB maps that are undone due to squashing
system.cpu00.rename.serializingInsts             4091                       # count of serializing insts renamed
system.cpu00.rename.tempSerializingInsts         1722                       # count of temporary serializing insts renamed
system.cpu00.rename.skidInsts                  154806                       # count of insts added to the skid buffer
system.cpu00.memDep0.insertedLoads             179581                       # Number of loads inserted to the mem dependence unit.
system.cpu00.memDep0.insertedStores            135360                       # Number of stores inserted to the mem dependence unit.
system.cpu00.memDep0.conflictingLoads           32031                       # Number of conflicting loads.
system.cpu00.memDep0.conflictingStores          12403                       # Number of conflicting stores.
system.cpu00.iq.iqInstsAdded                   968996                       # Number of instructions added to the IQ (excludes non-spec)
system.cpu00.iq.iqNonSpecInstsAdded              2818                       # Number of non-speculative instructions added to the IQ
system.cpu00.iq.iqInstsIssued                  953190                       # Number of instructions issued
system.cpu00.iq.iqSquashedInstsIssued            1803                       # Number of squashed instructions issued
system.cpu00.iq.iqSquashedInstsExamined        102021                       # Number of squashed instructions iterated over during squash; mainly for profiling
system.cpu00.iq.iqSquashedOperandsExamined        51808                       # Number of squashed operands that are examined and possibly removed from graph
system.cpu00.iq.iqSquashedNonSpecRemoved          448                       # Number of squashed non-spec instructions that were removed
system.cpu00.iq.issued_per_cycle::samples       819699                       # Number of insts issued each cycle
system.cpu00.iq.issued_per_cycle::mean       1.162854                       # Number of insts issued each cycle
system.cpu00.iq.issued_per_cycle::stdev      1.924606                       # Number of insts issued each cycle
system.cpu00.iq.issued_per_cycle::underflows            0      0.00%      0.00% # Number of insts issued each cycle
system.cpu00.iq.issued_per_cycle::0            519240     63.35%     63.35% # Number of insts issued each cycle
system.cpu00.iq.issued_per_cycle::1             74830      9.13%     72.47% # Number of insts issued each cycle
system.cpu00.iq.issued_per_cycle::2             62320      7.60%     80.08% # Number of insts issued each cycle
system.cpu00.iq.issued_per_cycle::3             45418      5.54%     85.62% # Number of insts issued each cycle
system.cpu00.iq.issued_per_cycle::4             43706      5.33%     90.95% # Number of insts issued each cycle
system.cpu00.iq.issued_per_cycle::5             29168      3.56%     94.51% # Number of insts issued each cycle
system.cpu00.iq.issued_per_cycle::6             26113      3.19%     97.69% # Number of insts issued each cycle
system.cpu00.iq.issued_per_cycle::7             11108      1.36%     99.05% # Number of insts issued each cycle
system.cpu00.iq.issued_per_cycle::8              7796      0.95%    100.00% # Number of insts issued each cycle
system.cpu00.iq.issued_per_cycle::overflows            0      0.00%    100.00% # Number of insts issued each cycle
system.cpu00.iq.issued_per_cycle::min_value            0                       # Number of insts issued each cycle
system.cpu00.iq.issued_per_cycle::max_value            8                       # Number of insts issued each cycle
system.cpu00.iq.issued_per_cycle::total        819699                       # Number of insts issued each cycle
system.cpu00.iq.fu_full::No_OpClass                 0      0.00%      0.00% # attempts to use FU when none available
system.cpu00.iq.fu_full::IntAlu                  4830     15.64%     15.64% # attempts to use FU when none available
system.cpu00.iq.fu_full::IntMult                 4097     13.27%     28.91% # attempts to use FU when none available
system.cpu00.iq.fu_full::IntDiv                     0      0.00%     28.91% # attempts to use FU when none available
system.cpu00.iq.fu_full::FloatAdd                  62      0.20%     29.11% # attempts to use FU when none available
system.cpu00.iq.fu_full::FloatCmp                   0      0.00%     29.11% # attempts to use FU when none available
system.cpu00.iq.fu_full::FloatCvt                   0      0.00%     29.11% # attempts to use FU when none available
system.cpu00.iq.fu_full::FloatMult               5991     19.40%     48.52% # attempts to use FU when none available
system.cpu00.iq.fu_full::FloatDiv                   0      0.00%     48.52% # attempts to use FU when none available
system.cpu00.iq.fu_full::FloatSqrt                  0      0.00%     48.52% # attempts to use FU when none available
system.cpu00.iq.fu_full::SimdAdd                    0      0.00%     48.52% # attempts to use FU when none available
system.cpu00.iq.fu_full::SimdAddAcc                 0      0.00%     48.52% # attempts to use FU when none available
system.cpu00.iq.fu_full::SimdAlu                    0      0.00%     48.52% # attempts to use FU when none available
system.cpu00.iq.fu_full::SimdCmp                    0      0.00%     48.52% # attempts to use FU when none available
system.cpu00.iq.fu_full::SimdCvt                    0      0.00%     48.52% # attempts to use FU when none available
system.cpu00.iq.fu_full::SimdMisc                   0      0.00%     48.52% # attempts to use FU when none available
system.cpu00.iq.fu_full::SimdMult                   0      0.00%     48.52% # attempts to use FU when none available
system.cpu00.iq.fu_full::SimdMultAcc                0      0.00%     48.52% # attempts to use FU when none available
system.cpu00.iq.fu_full::SimdShift                  0      0.00%     48.52% # attempts to use FU when none available
system.cpu00.iq.fu_full::SimdShiftAcc               0      0.00%     48.52% # attempts to use FU when none available
system.cpu00.iq.fu_full::SimdSqrt                   0      0.00%     48.52% # attempts to use FU when none available
system.cpu00.iq.fu_full::SimdFloatAdd               0      0.00%     48.52% # attempts to use FU when none available
system.cpu00.iq.fu_full::SimdFloatAlu               0      0.00%     48.52% # attempts to use FU when none available
system.cpu00.iq.fu_full::SimdFloatCmp               0      0.00%     48.52% # attempts to use FU when none available
system.cpu00.iq.fu_full::SimdFloatCvt               0      0.00%     48.52% # attempts to use FU when none available
system.cpu00.iq.fu_full::SimdFloatDiv               0      0.00%     48.52% # attempts to use FU when none available
system.cpu00.iq.fu_full::SimdFloatMisc              0      0.00%     48.52% # attempts to use FU when none available
system.cpu00.iq.fu_full::SimdFloatMult              0      0.00%     48.52% # attempts to use FU when none available
system.cpu00.iq.fu_full::SimdFloatMultAcc            0      0.00%     48.52% # attempts to use FU when none available
system.cpu00.iq.fu_full::SimdFloatSqrt              0      0.00%     48.52% # attempts to use FU when none available
system.cpu00.iq.fu_full::MemRead                 9756     31.60%     80.11% # attempts to use FU when none available
system.cpu00.iq.fu_full::MemWrite                6141     19.89%    100.00% # attempts to use FU when none available
system.cpu00.iq.fu_full::IprAccess                  0      0.00%    100.00% # attempts to use FU when none available
system.cpu00.iq.fu_full::InstPrefetch               0      0.00%    100.00% # attempts to use FU when none available
system.cpu00.iq.FU_type_0::No_OpClass               0      0.00%      0.00% # Type of FU issued
system.cpu00.iq.FU_type_0::IntAlu              550913     57.80%     57.80% # Type of FU issued
system.cpu00.iq.FU_type_0::IntMult              12784      1.34%     59.14% # Type of FU issued
system.cpu00.iq.FU_type_0::IntDiv                   0      0.00%     59.14% # Type of FU issued
system.cpu00.iq.FU_type_0::FloatAdd             35719      3.75%     62.89% # Type of FU issued
system.cpu00.iq.FU_type_0::FloatCmp                 8      0.00%     62.89% # Type of FU issued
system.cpu00.iq.FU_type_0::FloatCvt                 0      0.00%     62.89% # Type of FU issued
system.cpu00.iq.FU_type_0::FloatMult            37102      3.89%     66.78% # Type of FU issued
system.cpu00.iq.FU_type_0::FloatDiv                16      0.00%     66.78% # Type of FU issued
system.cpu00.iq.FU_type_0::FloatSqrt                0      0.00%     66.78% # Type of FU issued
system.cpu00.iq.FU_type_0::SimdAdd                  0      0.00%     66.78% # Type of FU issued
system.cpu00.iq.FU_type_0::SimdAddAcc               0      0.00%     66.78% # Type of FU issued
system.cpu00.iq.FU_type_0::SimdAlu                  0      0.00%     66.78% # Type of FU issued
system.cpu00.iq.FU_type_0::SimdCmp                  0      0.00%     66.78% # Type of FU issued
system.cpu00.iq.FU_type_0::SimdCvt                  0      0.00%     66.78% # Type of FU issued
system.cpu00.iq.FU_type_0::SimdMisc                 0      0.00%     66.78% # Type of FU issued
system.cpu00.iq.FU_type_0::SimdMult                 0      0.00%     66.78% # Type of FU issued
system.cpu00.iq.FU_type_0::SimdMultAcc              0      0.00%     66.78% # Type of FU issued
system.cpu00.iq.FU_type_0::SimdShift                0      0.00%     66.78% # Type of FU issued
system.cpu00.iq.FU_type_0::SimdShiftAcc             0      0.00%     66.78% # Type of FU issued
system.cpu00.iq.FU_type_0::SimdSqrt                 0      0.00%     66.78% # Type of FU issued
system.cpu00.iq.FU_type_0::SimdFloatAdd             0      0.00%     66.78% # Type of FU issued
system.cpu00.iq.FU_type_0::SimdFloatAlu             0      0.00%     66.78% # Type of FU issued
system.cpu00.iq.FU_type_0::SimdFloatCmp             0      0.00%     66.78% # Type of FU issued
system.cpu00.iq.FU_type_0::SimdFloatCvt             0      0.00%     66.78% # Type of FU issued
system.cpu00.iq.FU_type_0::SimdFloatDiv             0      0.00%     66.78% # Type of FU issued
system.cpu00.iq.FU_type_0::SimdFloatMisc            0      0.00%     66.78% # Type of FU issued
system.cpu00.iq.FU_type_0::SimdFloatMult            0      0.00%     66.78% # Type of FU issued
system.cpu00.iq.FU_type_0::SimdFloatMultAcc            0      0.00%     66.78% # Type of FU issued
system.cpu00.iq.FU_type_0::SimdFloatSqrt            0      0.00%     66.78% # Type of FU issued
system.cpu00.iq.FU_type_0::MemRead             186244     19.54%     86.32% # Type of FU issued
system.cpu00.iq.FU_type_0::MemWrite            130404     13.68%    100.00% # Type of FU issued
system.cpu00.iq.FU_type_0::IprAccess                0      0.00%    100.00% # Type of FU issued
system.cpu00.iq.FU_type_0::InstPrefetch             0      0.00%    100.00% # Type of FU issued
system.cpu00.iq.FU_type_0::total               953190                       # Type of FU issued
system.cpu00.iq.rate                         0.929230                       # Inst issue rate
system.cpu00.iq.fu_busy_cnt                     30877                       # FU busy when requested
system.cpu00.iq.fu_busy_rate                 0.032393                       # FU busy rate (busy events/executed inst)
system.cpu00.iq.int_inst_queue_reads          2515156                       # Number of integer instruction queue reads
system.cpu00.iq.int_inst_queue_writes          951105                       # Number of integer instruction queue writes
system.cpu00.iq.int_inst_queue_wakeup_accesses       813559                       # Number of integer instruction queue wakeup accesses
system.cpu00.iq.fp_inst_queue_reads            243603                       # Number of floating instruction queue reads
system.cpu00.iq.fp_inst_queue_writes           123150                       # Number of floating instruction queue writes
system.cpu00.iq.fp_inst_queue_wakeup_accesses       116944                       # Number of floating instruction queue wakeup accesses
system.cpu00.iq.int_alu_accesses               858882                       # Number of integer alu accesses
system.cpu00.iq.fp_alu_accesses                125185                       # Number of floating point alu accesses
system.cpu00.iew.lsq.thread0.forwLoads          21345                       # Number of loads that had data forwarded from stores
system.cpu00.iew.lsq.thread0.invAddrLoads            0                       # Number of loads ignored due to an invalid address
system.cpu00.iew.lsq.thread0.squashedLoads        18634                       # Number of loads squashed
system.cpu00.iew.lsq.thread0.ignoredResponses           96                       # Number of memory responses ignored because the instruction is squashed
system.cpu00.iew.lsq.thread0.memOrderViolation          430                       # Number of memory ordering violations
system.cpu00.iew.lsq.thread0.squashedStores        15843                       # Number of stores squashed
system.cpu00.iew.lsq.thread0.invAddrSwpfs            0                       # Number of software prefetches ignored due to an invalid address
system.cpu00.iew.lsq.thread0.blockedLoads            0                       # Number of blocked loads due to partial load-store forwarding
system.cpu00.iew.lsq.thread0.rescheduledLoads          221                       # Number of loads that were rescheduled
system.cpu00.iew.lsq.thread0.cacheBlocked        11834                       # Number of times an access to memory failed due to the cache being blocked
system.cpu00.iew.iewIdleCycles                      0                       # Number of cycles IEW is idle
system.cpu00.iew.iewSquashCycles                 4643                       # Number of cycles IEW is squashing
system.cpu00.iew.iewBlockCycles                 22388                       # Number of cycles IEW is blocking
system.cpu00.iew.iewUnblockCycles               68814                       # Number of cycles IEW is unblocking
system.cpu00.iew.iewDispatchedInsts           1079357                       # Number of instructions dispatched to IQ
system.cpu00.iew.iewDispSquashedInsts            1363                       # Number of squashed instructions skipped by dispatch
system.cpu00.iew.iewDispLoadInsts              179581                       # Number of dispatched load instructions
system.cpu00.iew.iewDispStoreInsts             135360                       # Number of dispatched store instructions
system.cpu00.iew.iewDispNonSpecInsts             1638                       # Number of dispatched non-speculative instructions
system.cpu00.iew.iewIQFullEvents                  123                       # Number of times the IQ has become full, causing a stall
system.cpu00.iew.iewLSQFullEvents               68609                       # Number of times the LSQ has become full, causing a stall
system.cpu00.iew.memOrderViolationEvents          430                       # Number of memory order violations
system.cpu00.iew.predictedTakenIncorrect         1589                       # Number of branches that were predicted taken incorrectly
system.cpu00.iew.predictedNotTakenIncorrect         3104                       # Number of branches that were predicted not taken incorrectly
system.cpu00.iew.branchMispredicts               4693                       # Number of branch mispredicts detected at execute
system.cpu00.iew.iewExecutedInsts              945814                       # Number of executed instructions
system.cpu00.iew.iewExecLoadInsts              183062                       # Number of load instructions executed
system.cpu00.iew.iewExecSquashedInsts            7376                       # Number of squashed instructions skipped in execute
system.cpu00.iew.exec_swp                           0                       # number of swp insts executed
system.cpu00.iew.exec_nop                      107543                       # number of nop insts executed
system.cpu00.iew.exec_refs                     312008                       # number of memory reference insts executed
system.cpu00.iew.exec_branches                 110245                       # Number of branches executed
system.cpu00.iew.exec_stores                   128946                       # Number of stores executed
system.cpu00.iew.exec_rate                   0.922039                       # Inst execution rate
system.cpu00.iew.wb_sent                       933716                       # cumulative count of insts sent to commit
system.cpu00.iew.wb_count                      930503                       # cumulative count of insts written-back
system.cpu00.iew.wb_producers                  545698                       # num instructions producing a value
system.cpu00.iew.wb_consumers                  778611                       # num instructions consuming a value
system.cpu00.iew.wb_rate                     0.907113                       # insts written-back per cycle
system.cpu00.iew.wb_fanout                   0.700861                       # average fanout of values written-back
system.cpu00.commit.commitSquashedInsts        106368                       # The number of squashed insts skipped by commit
system.cpu00.commit.commitNonSpecStalls          2370                       # The number of times commit has been forced to stall to communicate backwards
system.cpu00.commit.branchMispredicts            3959                       # The number of times a branch was mispredicted
system.cpu00.commit.committed_per_cycle::samples       802981                       # Number of insts commited each cycle
system.cpu00.commit.committed_per_cycle::mean     1.205995                       # Number of insts commited each cycle
system.cpu00.commit.committed_per_cycle::stdev     2.305753                       # Number of insts commited each cycle
system.cpu00.commit.committed_per_cycle::underflows            0      0.00%      0.00% # Number of insts commited each cycle
system.cpu00.commit.committed_per_cycle::0       554545     69.06%     69.06% # Number of insts commited each cycle
system.cpu00.commit.committed_per_cycle::1        52173      6.50%     75.56% # Number of insts commited each cycle
system.cpu00.commit.committed_per_cycle::2        51139      6.37%     81.93% # Number of insts commited each cycle
system.cpu00.commit.committed_per_cycle::3        29934      3.73%     85.65% # Number of insts commited each cycle
system.cpu00.commit.committed_per_cycle::4        34948      4.35%     90.01% # Number of insts commited each cycle
system.cpu00.commit.committed_per_cycle::5         9068      1.13%     91.14% # Number of insts commited each cycle
system.cpu00.commit.committed_per_cycle::6        12783      1.59%     92.73% # Number of insts commited each cycle
system.cpu00.commit.committed_per_cycle::7         4820      0.60%     93.33% # Number of insts commited each cycle
system.cpu00.commit.committed_per_cycle::8        53571      6.67%    100.00% # Number of insts commited each cycle
system.cpu00.commit.committed_per_cycle::overflows            0      0.00%    100.00% # Number of insts commited each cycle
system.cpu00.commit.committed_per_cycle::min_value            0                       # Number of insts commited each cycle
system.cpu00.commit.committed_per_cycle::max_value            8                       # Number of insts commited each cycle
system.cpu00.commit.committed_per_cycle::total       802981                       # Number of insts commited each cycle
system.cpu00.commit.committedInsts             968391                       # Number of instructions committed
system.cpu00.commit.committedOps               968391                       # Number of ops (including micro ops) committed
system.cpu00.commit.swp_count                       0                       # Number of s/w prefetches committed
system.cpu00.commit.refs                       280464                       # Number of memory references committed
system.cpu00.commit.loads                      160947                       # Number of loads committed
system.cpu00.commit.membars                      1032                       # Number of memory barriers committed
system.cpu00.commit.branches                   100087                       # Number of branches committed
system.cpu00.commit.fp_insts                   116058                       # Number of committed floating point instructions.
system.cpu00.commit.int_insts                  791924                       # Number of committed integer instructions.
system.cpu00.commit.function_calls              22216                       # Number of function calls committed.
system.cpu00.commit.op_class_0::No_OpClass        98599     10.18%     10.18% # Class of committed instruction
system.cpu00.commit.op_class_0::IntAlu         503169     51.96%     62.14% # Class of committed instruction
system.cpu00.commit.op_class_0::IntMult         12689      1.31%     63.45% # Class of committed instruction
system.cpu00.commit.op_class_0::IntDiv              0      0.00%     63.45% # Class of committed instruction
system.cpu00.commit.op_class_0::FloatAdd        35480      3.66%     67.12% # Class of committed instruction
system.cpu00.commit.op_class_0::FloatCmp            8      0.00%     67.12% # Class of committed instruction
system.cpu00.commit.op_class_0::FloatCvt            0      0.00%     67.12% # Class of committed instruction
system.cpu00.commit.op_class_0::FloatMult        36935      3.81%     70.93% # Class of committed instruction
system.cpu00.commit.op_class_0::FloatDiv           14      0.00%     70.93% # Class of committed instruction
system.cpu00.commit.op_class_0::FloatSqrt            0      0.00%     70.93% # Class of committed instruction
system.cpu00.commit.op_class_0::SimdAdd             0      0.00%     70.93% # Class of committed instruction
system.cpu00.commit.op_class_0::SimdAddAcc            0      0.00%     70.93% # Class of committed instruction
system.cpu00.commit.op_class_0::SimdAlu             0      0.00%     70.93% # Class of committed instruction
system.cpu00.commit.op_class_0::SimdCmp             0      0.00%     70.93% # Class of committed instruction
system.cpu00.commit.op_class_0::SimdCvt             0      0.00%     70.93% # Class of committed instruction
system.cpu00.commit.op_class_0::SimdMisc            0      0.00%     70.93% # Class of committed instruction
system.cpu00.commit.op_class_0::SimdMult            0      0.00%     70.93% # Class of committed instruction
system.cpu00.commit.op_class_0::SimdMultAcc            0      0.00%     70.93% # Class of committed instruction
system.cpu00.commit.op_class_0::SimdShift            0      0.00%     70.93% # Class of committed instruction
system.cpu00.commit.op_class_0::SimdShiftAcc            0      0.00%     70.93% # Class of committed instruction
system.cpu00.commit.op_class_0::SimdSqrt            0      0.00%     70.93% # Class of committed instruction
system.cpu00.commit.op_class_0::SimdFloatAdd            0      0.00%     70.93% # Class of committed instruction
system.cpu00.commit.op_class_0::SimdFloatAlu            0      0.00%     70.93% # Class of committed instruction
system.cpu00.commit.op_class_0::SimdFloatCmp            0      0.00%     70.93% # Class of committed instruction
system.cpu00.commit.op_class_0::SimdFloatCvt            0      0.00%     70.93% # Class of committed instruction
system.cpu00.commit.op_class_0::SimdFloatDiv            0      0.00%     70.93% # Class of committed instruction
system.cpu00.commit.op_class_0::SimdFloatMisc            0      0.00%     70.93% # Class of committed instruction
system.cpu00.commit.op_class_0::SimdFloatMult            0      0.00%     70.93% # Class of committed instruction
system.cpu00.commit.op_class_0::SimdFloatMultAcc            0      0.00%     70.93% # Class of committed instruction
system.cpu00.commit.op_class_0::SimdFloatSqrt            0      0.00%     70.93% # Class of committed instruction
system.cpu00.commit.op_class_0::MemRead        161979     16.73%     87.66% # Class of committed instruction
system.cpu00.commit.op_class_0::MemWrite       119518     12.34%    100.00% # Class of committed instruction
system.cpu00.commit.op_class_0::IprAccess            0      0.00%    100.00% # Class of committed instruction
system.cpu00.commit.op_class_0::InstPrefetch            0      0.00%    100.00% # Class of committed instruction
system.cpu00.commit.op_class_0::total          968391                       # Class of committed instruction
system.cpu00.commit.bw_lim_events               53571                       # number cycles where commit BW limit reached
system.cpu00.rob.rob_reads                    1820178                       # The number of ROB reads
system.cpu00.rob.rob_writes                   2166359                       # The number of ROB writes
system.cpu00.timesIdled                          1456                       # Number of times that the entire CPU went into an idle state and unscheduled itself
system.cpu00.idleCycles                        206086                       # Total number of cycles that the CPU has spent unscheduled due to idling
system.cpu00.quiesceCycles                      72143                       # Total number of cycles that CPU has spent quiesced or waiting for an interrupt
system.cpu00.committedInsts                    869792                       # Number of Instructions Simulated
system.cpu00.committedOps                      869792                       # Number of Ops (including micro ops) Simulated
system.cpu00.cpi                             1.179345                       # CPI: Cycles Per Instruction
system.cpu00.cpi_total                       1.179345                       # CPI: Total CPI of All Threads
system.cpu00.ipc                             0.847928                       # IPC: Instructions Per Cycle
system.cpu00.ipc_total                       0.847928                       # IPC: Total IPC of All Threads
system.cpu00.int_regfile_reads                1142275                       # number of integer regfile reads
system.cpu00.int_regfile_writes                612290                       # number of integer regfile writes
system.cpu00.fp_regfile_reads                  151788                       # number of floating regfile reads
system.cpu00.fp_regfile_writes                 102880                       # number of floating regfile writes
system.cpu00.misc_regfile_reads                  4743                       # number of misc regfile reads
system.cpu00.misc_regfile_writes                 2251                       # number of misc regfile writes
system.cpu00.dcache.tags.replacements           17326                       # number of replacements
system.cpu00.dcache.tags.tagsinuse          63.004088                       # Cycle average of tags in use
system.cpu00.dcache.tags.total_refs            219178                       # Total number of references to valid blocks.
system.cpu00.dcache.tags.sampled_refs           17390                       # Sample count of references to valid blocks.
system.cpu00.dcache.tags.avg_refs           12.603680                       # Average number of references to valid blocks.
system.cpu00.dcache.tags.warmup_cycle        61602660                       # Cycle when the warmup percentage was hit.
system.cpu00.dcache.tags.occ_blocks::cpu00.data    63.004088                       # Average occupied blocks per requestor
system.cpu00.dcache.tags.occ_percent::cpu00.data     0.984439                       # Average percentage of cache occupancy
system.cpu00.dcache.tags.occ_percent::total     0.984439                       # Average percentage of cache occupancy
system.cpu00.dcache.tags.occ_task_id_blocks::1024           64                       # Occupied blocks per task id
system.cpu00.dcache.tags.age_task_id_blocks_1024::0           55                       # Occupied blocks per task id
system.cpu00.dcache.tags.age_task_id_blocks_1024::1            9                       # Occupied blocks per task id
system.cpu00.dcache.tags.occ_task_id_percent::1024            1                       # Percentage of cache occupancy per task id
system.cpu00.dcache.tags.tag_accesses          559233                       # Number of tag accesses
system.cpu00.dcache.tags.data_accesses         559233                       # Number of data accesses
system.cpu00.dcache.ReadReq_hits::cpu00.data       136173                       # number of ReadReq hits
system.cpu00.dcache.ReadReq_hits::total        136173                       # number of ReadReq hits
system.cpu00.dcache.WriteReq_hits::cpu00.data        80968                       # number of WriteReq hits
system.cpu00.dcache.WriteReq_hits::total        80968                       # number of WriteReq hits
system.cpu00.dcache.LoadLockedReq_hits::cpu00.data          841                       # number of LoadLockedReq hits
system.cpu00.dcache.LoadLockedReq_hits::total          841                       # number of LoadLockedReq hits
system.cpu00.dcache.StoreCondReq_hits::cpu00.data         1112                       # number of StoreCondReq hits
system.cpu00.dcache.StoreCondReq_hits::total         1112                       # number of StoreCondReq hits
system.cpu00.dcache.demand_hits::cpu00.data       217141                       # number of demand (read+write) hits
system.cpu00.dcache.demand_hits::total         217141                       # number of demand (read+write) hits
system.cpu00.dcache.overall_hits::cpu00.data       217141                       # number of overall hits
system.cpu00.dcache.overall_hits::total        217141                       # number of overall hits
system.cpu00.dcache.ReadReq_misses::cpu00.data        13970                       # number of ReadReq misses
system.cpu00.dcache.ReadReq_misses::total        13970                       # number of ReadReq misses
system.cpu00.dcache.WriteReq_misses::cpu00.data        37427                       # number of WriteReq misses
system.cpu00.dcache.WriteReq_misses::total        37427                       # number of WriteReq misses
system.cpu00.dcache.LoadLockedReq_misses::cpu00.data          362                       # number of LoadLockedReq misses
system.cpu00.dcache.LoadLockedReq_misses::total          362                       # number of LoadLockedReq misses
system.cpu00.dcache.StoreCondReq_misses::cpu00.data           10                       # number of StoreCondReq misses
system.cpu00.dcache.StoreCondReq_misses::total           10                       # number of StoreCondReq misses
system.cpu00.dcache.demand_misses::cpu00.data        51397                       # number of demand (read+write) misses
system.cpu00.dcache.demand_misses::total        51397                       # number of demand (read+write) misses
system.cpu00.dcache.overall_misses::cpu00.data        51397                       # number of overall misses
system.cpu00.dcache.overall_misses::total        51397                       # number of overall misses
system.cpu00.dcache.ReadReq_miss_latency::cpu00.data    466026561                       # number of ReadReq miss cycles
system.cpu00.dcache.ReadReq_miss_latency::total    466026561                       # number of ReadReq miss cycles
system.cpu00.dcache.WriteReq_miss_latency::cpu00.data   5396654701                       # number of WriteReq miss cycles
system.cpu00.dcache.WriteReq_miss_latency::total   5396654701                       # number of WriteReq miss cycles
system.cpu00.dcache.LoadLockedReq_miss_latency::cpu00.data      3210165                       # number of LoadLockedReq miss cycles
system.cpu00.dcache.LoadLockedReq_miss_latency::total      3210165                       # number of LoadLockedReq miss cycles
system.cpu00.dcache.StoreCondReq_miss_latency::cpu00.data       348300                       # number of StoreCondReq miss cycles
system.cpu00.dcache.StoreCondReq_miss_latency::total       348300                       # number of StoreCondReq miss cycles
system.cpu00.dcache.demand_miss_latency::cpu00.data   5862681262                       # number of demand (read+write) miss cycles
system.cpu00.dcache.demand_miss_latency::total   5862681262                       # number of demand (read+write) miss cycles
system.cpu00.dcache.overall_miss_latency::cpu00.data   5862681262                       # number of overall miss cycles
system.cpu00.dcache.overall_miss_latency::total   5862681262                       # number of overall miss cycles
system.cpu00.dcache.ReadReq_accesses::cpu00.data       150143                       # number of ReadReq accesses(hits+misses)
system.cpu00.dcache.ReadReq_accesses::total       150143                       # number of ReadReq accesses(hits+misses)
system.cpu00.dcache.WriteReq_accesses::cpu00.data       118395                       # number of WriteReq accesses(hits+misses)
system.cpu00.dcache.WriteReq_accesses::total       118395                       # number of WriteReq accesses(hits+misses)
system.cpu00.dcache.LoadLockedReq_accesses::cpu00.data         1203                       # number of LoadLockedReq accesses(hits+misses)
system.cpu00.dcache.LoadLockedReq_accesses::total         1203                       # number of LoadLockedReq accesses(hits+misses)
system.cpu00.dcache.StoreCondReq_accesses::cpu00.data         1122                       # number of StoreCondReq accesses(hits+misses)
system.cpu00.dcache.StoreCondReq_accesses::total         1122                       # number of StoreCondReq accesses(hits+misses)
system.cpu00.dcache.demand_accesses::cpu00.data       268538                       # number of demand (read+write) accesses
system.cpu00.dcache.demand_accesses::total       268538                       # number of demand (read+write) accesses
system.cpu00.dcache.overall_accesses::cpu00.data       268538                       # number of overall (read+write) accesses
system.cpu00.dcache.overall_accesses::total       268538                       # number of overall (read+write) accesses
system.cpu00.dcache.ReadReq_miss_rate::cpu00.data     0.093045                       # miss rate for ReadReq accesses
system.cpu00.dcache.ReadReq_miss_rate::total     0.093045                       # miss rate for ReadReq accesses
system.cpu00.dcache.WriteReq_miss_rate::cpu00.data     0.316120                       # miss rate for WriteReq accesses
system.cpu00.dcache.WriteReq_miss_rate::total     0.316120                       # miss rate for WriteReq accesses
system.cpu00.dcache.LoadLockedReq_miss_rate::cpu00.data     0.300914                       # miss rate for LoadLockedReq accesses
system.cpu00.dcache.LoadLockedReq_miss_rate::total     0.300914                       # miss rate for LoadLockedReq accesses
system.cpu00.dcache.StoreCondReq_miss_rate::cpu00.data     0.008913                       # miss rate for StoreCondReq accesses
system.cpu00.dcache.StoreCondReq_miss_rate::total     0.008913                       # miss rate for StoreCondReq accesses
system.cpu00.dcache.demand_miss_rate::cpu00.data     0.191396                       # miss rate for demand accesses
system.cpu00.dcache.demand_miss_rate::total     0.191396                       # miss rate for demand accesses
system.cpu00.dcache.overall_miss_rate::cpu00.data     0.191396                       # miss rate for overall accesses
system.cpu00.dcache.overall_miss_rate::total     0.191396                       # miss rate for overall accesses
system.cpu00.dcache.ReadReq_avg_miss_latency::cpu00.data 33359.095276                       # average ReadReq miss latency
system.cpu00.dcache.ReadReq_avg_miss_latency::total 33359.095276                       # average ReadReq miss latency
system.cpu00.dcache.WriteReq_avg_miss_latency::cpu00.data 144191.484784                       # average WriteReq miss latency
system.cpu00.dcache.WriteReq_avg_miss_latency::total 144191.484784                       # average WriteReq miss latency
system.cpu00.dcache.LoadLockedReq_avg_miss_latency::cpu00.data  8867.859116                       # average LoadLockedReq miss latency
system.cpu00.dcache.LoadLockedReq_avg_miss_latency::total  8867.859116                       # average LoadLockedReq miss latency
system.cpu00.dcache.StoreCondReq_avg_miss_latency::cpu00.data        34830                       # average StoreCondReq miss latency
system.cpu00.dcache.StoreCondReq_avg_miss_latency::total        34830                       # average StoreCondReq miss latency
system.cpu00.dcache.demand_avg_miss_latency::cpu00.data 114066.604315                       # average overall miss latency
system.cpu00.dcache.demand_avg_miss_latency::total 114066.604315                       # average overall miss latency
system.cpu00.dcache.overall_avg_miss_latency::cpu00.data 114066.604315                       # average overall miss latency
system.cpu00.dcache.overall_avg_miss_latency::total 114066.604315                       # average overall miss latency
system.cpu00.dcache.blocked_cycles::no_mshrs       160014                       # number of cycles access was blocked
system.cpu00.dcache.blocked_cycles::no_targets            0                       # number of cycles access was blocked
system.cpu00.dcache.blocked::no_mshrs            3563                       # number of cycles access was blocked
system.cpu00.dcache.blocked::no_targets             0                       # number of cycles access was blocked
system.cpu00.dcache.avg_blocked_cycles::no_mshrs    44.909907                       # average number of cycles each access was blocked
system.cpu00.dcache.avg_blocked_cycles::no_targets          nan                       # average number of cycles each access was blocked
system.cpu00.dcache.fast_writes                     0                       # number of fast writes performed
system.cpu00.dcache.cache_copies                    0                       # number of cache copies performed
system.cpu00.dcache.writebacks::writebacks        12852                       # number of writebacks
system.cpu00.dcache.writebacks::total           12852                       # number of writebacks
system.cpu00.dcache.ReadReq_mshr_hits::cpu00.data         4352                       # number of ReadReq MSHR hits
system.cpu00.dcache.ReadReq_mshr_hits::total         4352                       # number of ReadReq MSHR hits
system.cpu00.dcache.WriteReq_mshr_hits::cpu00.data        29665                       # number of WriteReq MSHR hits
system.cpu00.dcache.WriteReq_mshr_hits::total        29665                       # number of WriteReq MSHR hits
system.cpu00.dcache.LoadLockedReq_mshr_hits::cpu00.data          178                       # number of LoadLockedReq MSHR hits
system.cpu00.dcache.LoadLockedReq_mshr_hits::total          178                       # number of LoadLockedReq MSHR hits
system.cpu00.dcache.demand_mshr_hits::cpu00.data        34017                       # number of demand (read+write) MSHR hits
system.cpu00.dcache.demand_mshr_hits::total        34017                       # number of demand (read+write) MSHR hits
system.cpu00.dcache.overall_mshr_hits::cpu00.data        34017                       # number of overall MSHR hits
system.cpu00.dcache.overall_mshr_hits::total        34017                       # number of overall MSHR hits
system.cpu00.dcache.ReadReq_mshr_misses::cpu00.data         9618                       # number of ReadReq MSHR misses
system.cpu00.dcache.ReadReq_mshr_misses::total         9618                       # number of ReadReq MSHR misses
system.cpu00.dcache.WriteReq_mshr_misses::cpu00.data         7762                       # number of WriteReq MSHR misses
system.cpu00.dcache.WriteReq_mshr_misses::total         7762                       # number of WriteReq MSHR misses
system.cpu00.dcache.LoadLockedReq_mshr_misses::cpu00.data          184                       # number of LoadLockedReq MSHR misses
system.cpu00.dcache.LoadLockedReq_mshr_misses::total          184                       # number of LoadLockedReq MSHR misses
system.cpu00.dcache.StoreCondReq_mshr_misses::cpu00.data            9                       # number of StoreCondReq MSHR misses
system.cpu00.dcache.StoreCondReq_mshr_misses::total            9                       # number of StoreCondReq MSHR misses
system.cpu00.dcache.demand_mshr_misses::cpu00.data        17380                       # number of demand (read+write) MSHR misses
system.cpu00.dcache.demand_mshr_misses::total        17380                       # number of demand (read+write) MSHR misses
system.cpu00.dcache.overall_mshr_misses::cpu00.data        17380                       # number of overall MSHR misses
system.cpu00.dcache.overall_mshr_misses::total        17380                       # number of overall MSHR misses
system.cpu00.dcache.ReadReq_mshr_miss_latency::cpu00.data    265437108                       # number of ReadReq MSHR miss cycles
system.cpu00.dcache.ReadReq_mshr_miss_latency::total    265437108                       # number of ReadReq MSHR miss cycles
system.cpu00.dcache.WriteReq_mshr_miss_latency::cpu00.data   1143360794                       # number of WriteReq MSHR miss cycles
system.cpu00.dcache.WriteReq_mshr_miss_latency::total   1143360794                       # number of WriteReq MSHR miss cycles
system.cpu00.dcache.LoadLockedReq_mshr_miss_latency::cpu00.data      1374624                       # number of LoadLockedReq MSHR miss cycles
system.cpu00.dcache.LoadLockedReq_mshr_miss_latency::total      1374624                       # number of LoadLockedReq MSHR miss cycles
system.cpu00.dcache.StoreCondReq_mshr_miss_latency::cpu00.data       337851                       # number of StoreCondReq MSHR miss cycles
system.cpu00.dcache.StoreCondReq_mshr_miss_latency::total       337851                       # number of StoreCondReq MSHR miss cycles
system.cpu00.dcache.demand_mshr_miss_latency::cpu00.data   1408797902                       # number of demand (read+write) MSHR miss cycles
system.cpu00.dcache.demand_mshr_miss_latency::total   1408797902                       # number of demand (read+write) MSHR miss cycles
system.cpu00.dcache.overall_mshr_miss_latency::cpu00.data   1408797902                       # number of overall MSHR miss cycles
system.cpu00.dcache.overall_mshr_miss_latency::total   1408797902                       # number of overall MSHR miss cycles
system.cpu00.dcache.ReadReq_mshr_miss_rate::cpu00.data     0.064059                       # mshr miss rate for ReadReq accesses
system.cpu00.dcache.ReadReq_mshr_miss_rate::total     0.064059                       # mshr miss rate for ReadReq accesses
system.cpu00.dcache.WriteReq_mshr_miss_rate::cpu00.data     0.065560                       # mshr miss rate for WriteReq accesses
system.cpu00.dcache.WriteReq_mshr_miss_rate::total     0.065560                       # mshr miss rate for WriteReq accesses
system.cpu00.dcache.LoadLockedReq_mshr_miss_rate::cpu00.data     0.152951                       # mshr miss rate for LoadLockedReq accesses
system.cpu00.dcache.LoadLockedReq_mshr_miss_rate::total     0.152951                       # mshr miss rate for LoadLockedReq accesses
system.cpu00.dcache.StoreCondReq_mshr_miss_rate::cpu00.data     0.008021                       # mshr miss rate for StoreCondReq accesses
system.cpu00.dcache.StoreCondReq_mshr_miss_rate::total     0.008021                       # mshr miss rate for StoreCondReq accesses
system.cpu00.dcache.demand_mshr_miss_rate::cpu00.data     0.064721                       # mshr miss rate for demand accesses
system.cpu00.dcache.demand_mshr_miss_rate::total     0.064721                       # mshr miss rate for demand accesses
system.cpu00.dcache.overall_mshr_miss_rate::cpu00.data     0.064721                       # mshr miss rate for overall accesses
system.cpu00.dcache.overall_mshr_miss_rate::total     0.064721                       # mshr miss rate for overall accesses
system.cpu00.dcache.ReadReq_avg_mshr_miss_latency::cpu00.data 27597.952589                       # average ReadReq mshr miss latency
system.cpu00.dcache.ReadReq_avg_mshr_miss_latency::total 27597.952589                       # average ReadReq mshr miss latency
system.cpu00.dcache.WriteReq_avg_mshr_miss_latency::cpu00.data 147302.343984                       # average WriteReq mshr miss latency
system.cpu00.dcache.WriteReq_avg_mshr_miss_latency::total 147302.343984                       # average WriteReq mshr miss latency
[...]
system.tol2bus.pkt_count_system.cpu06.dcache.mem_side::system.l2.cpu_side         2687                       # Packet count per connected master and slave (bytes)
system.tol2bus.pkt_count_system.cpu07.icache.mem_side::system.l2.cpu_side         1222                       # Packet count per connected master and slave (bytes)
system.tol2bus.pkt_count_system.cpu07.dcache.mem_side::system.l2.cpu_side         1580                       # Packet count per connected master and slave (bytes)
system.tol2bus.pkt_count_system.cpu08.icache.mem_side::system.l2.cpu_side         2156                       # Packet count per connected master and slave (bytes)
system.tol2bus.pkt_count_system.cpu08.dcache.mem_side::system.l2.cpu_side         3142                       # Packet count per connected master and slave (bytes)
system.tol2bus.pkt_count_system.cpu09.icache.mem_side::system.l2.cpu_side         2297                       # Packet count per connected master and slave (bytes)
system.tol2bus.pkt_count_system.cpu09.dcache.mem_side::system.l2.cpu_side         3713                       # Packet count per connected master and slave (bytes)
system.tol2bus.pkt_count_system.cpu10.icache.mem_side::system.l2.cpu_side         1559                       # Packet count per connected master and slave (bytes)
system.tol2bus.pkt_count_system.cpu10.dcache.mem_side::system.l2.cpu_side         2377                       # Packet count per connected master and slave (bytes)
system.tol2bus.pkt_count_system.cpu11.icache.mem_side::system.l2.cpu_side         2421                       # Packet count per connected master and slave (bytes)
system.tol2bus.pkt_count_system.cpu11.dcache.mem_side::system.l2.cpu_side         3647                       # Packet count per connected master and slave (bytes)
system.tol2bus.pkt_count_system.cpu12.icache.mem_side::system.l2.cpu_side         2240                       # Packet count per connected master and slave (bytes)
system.tol2bus.pkt_count_system.cpu12.dcache.mem_side::system.l2.cpu_side         2644                       # Packet count per connected master and slave (bytes)
system.tol2bus.pkt_count_system.cpu13.icache.mem_side::system.l2.cpu_side         1017                       # Packet count per connected master and slave (bytes)
system.tol2bus.pkt_count_system.cpu13.dcache.mem_side::system.l2.cpu_side         1519                       # Packet count per connected master and slave (bytes)
system.tol2bus.pkt_count_system.cpu14.icache.mem_side::system.l2.cpu_side          923                       # Packet count per connected master and slave (bytes)
system.tol2bus.pkt_count_system.cpu14.dcache.mem_side::system.l2.cpu_side         1574                       # Packet count per connected master and slave (bytes)
system.tol2bus.pkt_count_system.cpu15.icache.mem_side::system.l2.cpu_side         1145                       # Packet count per connected master and slave (bytes)
system.tol2bus.pkt_count_system.cpu15.dcache.mem_side::system.l2.cpu_side         1538                       # Packet count per connected master and slave (bytes)
system.tol2bus.pkt_count::total                149546                       # Packet count per connected master and slave (bytes)
system.tol2bus.pkt_size_system.cpu00.icache.mem_side::system.l2.cpu_side       982400                       # Cumulative packet size per connected master and slave (bytes)
system.tol2bus.pkt_size_system.cpu00.dcache.mem_side::system.l2.cpu_side      1921216                       # Cumulative packet size per connected master and slave (bytes)
system.tol2bus.pkt_size_system.cpu01.icache.mem_side::system.l2.cpu_side       112320                       # Cumulative packet size per connected master and slave (bytes)
system.tol2bus.pkt_size_system.cpu01.dcache.mem_side::system.l2.cpu_side       137024                       # Cumulative packet size per connected master and slave (bytes)
system.tol2bus.pkt_size_system.cpu02.icache.mem_side::system.l2.cpu_side        91136                       # Cumulative packet size per connected master and slave (bytes)
system.tol2bus.pkt_size_system.cpu02.dcache.mem_side::system.l2.cpu_side       118464                       # Cumulative packet size per connected master and slave (bytes)
system.tol2bus.pkt_size_system.cpu03.icache.mem_side::system.l2.cpu_side       102144                       # Cumulative packet size per connected master and slave (bytes)
system.tol2bus.pkt_size_system.cpu03.dcache.mem_side::system.l2.cpu_side       143296                       # Cumulative packet size per connected master and slave (bytes)
system.tol2bus.pkt_size_system.cpu04.icache.mem_side::system.l2.cpu_side        61888                       # Cumulative packet size per connected master and slave (bytes)
system.tol2bus.pkt_size_system.cpu04.dcache.mem_side::system.l2.cpu_side        61504                       # Cumulative packet size per connected master and slave (bytes)
system.tol2bus.pkt_size_system.cpu05.icache.mem_side::system.l2.cpu_side       107584                       # Cumulative packet size per connected master and slave (bytes)
system.tol2bus.pkt_size_system.cpu05.dcache.mem_side::system.l2.cpu_side       112704                       # Cumulative packet size per connected master and slave (bytes)
system.tol2bus.pkt_size_system.cpu06.icache.mem_side::system.l2.cpu_side        67584                       # Cumulative packet size per connected master and slave (bytes)
system.tol2bus.pkt_size_system.cpu06.dcache.mem_side::system.l2.cpu_side        66432                       # Cumulative packet size per connected master and slave (bytes)
system.tol2bus.pkt_size_system.cpu07.icache.mem_side::system.l2.cpu_side        42944                       # Cumulative packet size per connected master and slave (bytes)
system.tol2bus.pkt_size_system.cpu07.dcache.mem_side::system.l2.cpu_side        49344                       # Cumulative packet size per connected master and slave (bytes)
system.tol2bus.pkt_size_system.cpu08.icache.mem_side::system.l2.cpu_side        81728                       # Cumulative packet size per connected master and slave (bytes)
system.tol2bus.pkt_size_system.cpu08.dcache.mem_side::system.l2.cpu_side        88512                       # Cumulative packet size per connected master and slave (bytes)
system.tol2bus.pkt_size_system.cpu09.icache.mem_side::system.l2.cpu_side        87808                       # Cumulative packet size per connected master and slave (bytes)
system.tol2bus.pkt_size_system.cpu09.dcache.mem_side::system.l2.cpu_side        99968                       # Cumulative packet size per connected master and slave (bytes)
system.tol2bus.pkt_size_system.cpu10.icache.mem_side::system.l2.cpu_side        56704                       # Cumulative packet size per connected master and slave (bytes)
system.tol2bus.pkt_size_system.cpu10.dcache.mem_side::system.l2.cpu_side        66752                       # Cumulative packet size per connected master and slave (bytes)
system.tol2bus.pkt_size_system.cpu11.icache.mem_side::system.l2.cpu_side        92992                       # Cumulative packet size per connected master and slave (bytes)
system.tol2bus.pkt_size_system.cpu11.dcache.mem_side::system.l2.cpu_side        97280                       # Cumulative packet size per connected master and slave (bytes)
system.tol2bus.pkt_size_system.cpu12.icache.mem_side::system.l2.cpu_side        85504                       # Cumulative packet size per connected master and slave (bytes)
system.tol2bus.pkt_size_system.cpu12.dcache.mem_side::system.l2.cpu_side        85248                       # Cumulative packet size per connected master and slave (bytes)
system.tol2bus.pkt_size_system.cpu13.icache.mem_side::system.l2.cpu_side        35072                       # Cumulative packet size per connected master and slave (bytes)
system.tol2bus.pkt_size_system.cpu13.dcache.mem_side::system.l2.cpu_side        46656                       # Cumulative packet size per connected master and slave (bytes)
system.tol2bus.pkt_size_system.cpu14.icache.mem_side::system.l2.cpu_side        31296                       # Cumulative packet size per connected master and slave (bytes)
system.tol2bus.pkt_size_system.cpu14.dcache.mem_side::system.l2.cpu_side        55808                       # Cumulative packet size per connected master and slave (bytes)
system.tol2bus.pkt_size_system.cpu15.icache.mem_side::system.l2.cpu_side        40064                       # Cumulative packet size per connected master and slave (bytes)
system.tol2bus.pkt_size_system.cpu15.dcache.mem_side::system.l2.cpu_side        46080                       # Cumulative packet size per connected master and slave (bytes)
system.tol2bus.pkt_size::total                5275456                       # Cumulative packet size per connected master and slave (bytes)
system.tol2bus.snoops                            8249                       # Total snoops (count)
system.tol2bus.snoop_fanout::samples            58249                       # Request fanout histogram
system.tol2bus.snoop_fanout::mean            1.938042                       # Request fanout histogram
system.tol2bus.snoop_fanout::stdev           3.629313                       # Request fanout histogram
system.tol2bus.snoop_fanout::underflows             0      0.00%      0.00% # Request fanout histogram
system.tol2bus.snoop_fanout::0                  36020     61.84%     61.84% # Request fanout histogram
system.tol2bus.snoop_fanout::1                   7472     12.83%     74.67% # Request fanout histogram
system.tol2bus.snoop_fanout::2                   1988      3.41%     78.08% # Request fanout histogram
system.tol2bus.snoop_fanout::3                   1420      2.44%     80.52% # Request fanout histogram
system.tol2bus.snoop_fanout::4                   1343      2.31%     82.82% # Request fanout histogram
system.tol2bus.snoop_fanout::5                   1272      2.18%     85.01% # Request fanout histogram
system.tol2bus.snoop_fanout::6                   1219      2.09%     87.10% # Request fanout histogram
system.tol2bus.snoop_fanout::7                   1202      2.06%     89.16% # Request fanout histogram
system.tol2bus.snoop_fanout::8                   1045      1.79%     90.96% # Request fanout histogram
system.tol2bus.snoop_fanout::9                    921      1.58%     92.54% # Request fanout histogram
system.tol2bus.snoop_fanout::10                   925      1.59%     94.13% # Request fanout histogram
system.tol2bus.snoop_fanout::11                   811      1.39%     95.52% # Request fanout histogram
system.tol2bus.snoop_fanout::12                   739      1.27%     96.79% # Request fanout histogram
system.tol2bus.snoop_fanout::13                   686      1.18%     97.96% # Request fanout histogram
system.tol2bus.snoop_fanout::14                   680      1.17%     99.13% # Request fanout histogram
system.tol2bus.snoop_fanout::15                   501      0.86%     99.99% # Request fanout histogram
system.tol2bus.snoop_fanout::16                     5      0.01%    100.00% # Request fanout histogram
system.tol2bus.snoop_fanout::17                     0      0.00%    100.00% # Request fanout histogram
system.tol2bus.snoop_fanout::18                     0      0.00%    100.00% # Request fanout histogram
system.tol2bus.snoop_fanout::19                     0      0.00%    100.00% # Request fanout histogram
system.tol2bus.snoop_fanout::20                     0      0.00%    100.00% # Request fanout histogram
system.tol2bus.snoop_fanout::21                     0      0.00%    100.00% # Request fanout histogram
system.tol2bus.snoop_fanout::22                     0      0.00%    100.00% # Request fanout histogram
system.tol2bus.snoop_fanout::23                     0      0.00%    100.00% # Request fanout histogram
system.tol2bus.snoop_fanout::24                     0      0.00%    100.00% # Request fanout histogram
system.tol2bus.snoop_fanout::25                     0      0.00%    100.00% # Request fanout histogram
system.tol2bus.snoop_fanout::26                     0      0.00%    100.00% # Request fanout histogram
system.tol2bus.snoop_fanout::27                     0      0.00%    100.00% # Request fanout histogram
system.tol2bus.snoop_fanout::28                     0      0.00%    100.00% # Request fanout histogram
system.tol2bus.snoop_fanout::29                     0      0.00%    100.00% # Request fanout histogram
system.tol2bus.snoop_fanout::30                     0      0.00%    100.00% # Request fanout histogram
system.tol2bus.snoop_fanout::31                     0      0.00%    100.00% # Request fanout histogram
system.tol2bus.snoop_fanout::32                     0      0.00%    100.00% # Request fanout histogram
system.tol2bus.snoop_fanout::overflows              0      0.00%    100.00% # Request fanout histogram
system.tol2bus.snoop_fanout::min_value              0                       # Request fanout histogram
system.tol2bus.snoop_fanout::max_value             16                       # Request fanout histogram
system.tol2bus.snoop_fanout::total              58249                       # Request fanout histogram
system.tol2bus.reqLayer0.occupancy          193577750                       # Layer occupancy (ticks)
system.tol2bus.reqLayer0.utilization             15.2                       # Layer utilization (%)
system.tol2bus.respLayer0.occupancy          27993269                       # Layer occupancy (ticks)
system.tol2bus.respLayer0.utilization             2.2                       # Layer utilization (%)
system.tol2bus.respLayer1.occupancy          61417280                       # Layer occupancy (ticks)
system.tol2bus.respLayer1.utilization             4.8                       # Layer utilization (%)
system.tol2bus.respLayer2.occupancy           3977112                       # Layer occupancy (ticks)
system.tol2bus.respLayer2.utilization             0.3                       # Layer utilization (%)
system.tol2bus.respLayer3.occupancy           6861365                       # Layer occupancy (ticks)
system.tol2bus.respLayer3.utilization             0.5                       # Layer utilization (%)
system.tol2bus.respLayer4.occupancy           3416939                       # Layer occupancy (ticks)
system.tol2bus.respLayer4.utilization             0.3                       # Layer utilization (%)
system.tol2bus.respLayer5.occupancy           6563603                       # Layer occupancy (ticks)
system.tol2bus.respLayer5.utilization             0.5                       # Layer utilization (%)
system.tol2bus.respLayer6.occupancy           3702087                       # Layer occupancy (ticks)
system.tol2bus.respLayer6.utilization             0.3                       # Layer utilization (%)
system.tol2bus.respLayer7.occupancy           7242145                       # Layer occupancy (ticks)
system.tol2bus.respLayer7.utilization             0.6                       # Layer utilization (%)
system.tol2bus.respLayer8.occupancy           2591039                       # Layer occupancy (ticks)
system.tol2bus.respLayer8.utilization             0.2                       # Layer utilization (%)
system.tol2bus.respLayer9.occupancy           2646589                       # Layer occupancy (ticks)
system.tol2bus.respLayer9.utilization             0.2                       # Layer utilization (%)
system.tol2bus.respLayer10.occupancy          3883598                       # Layer occupancy (ticks)
system.tol2bus.respLayer10.utilization            0.3                       # Layer utilization (%)
system.tol2bus.respLayer11.occupancy          5760978                       # Layer occupancy (ticks)
system.tol2bus.respLayer11.utilization            0.5                       # Layer utilization (%)
system.tol2bus.respLayer12.occupancy          2709732                       # Layer occupancy (ticks)
system.tol2bus.respLayer12.utilization            0.2                       # Layer utilization (%)
system.tol2bus.respLayer13.occupancy          4044771                       # Layer occupancy (ticks)
system.tol2bus.respLayer13.utilization            0.3                       # Layer utilization (%)
system.tol2bus.respLayer14.occupancy          1969101                       # Layer occupancy (ticks)
system.tol2bus.respLayer14.utilization            0.2                       # Layer utilization (%)
system.tol2bus.respLayer15.occupancy          2144208                       # Layer occupancy (ticks)
system.tol2bus.respLayer15.utilization            0.2                       # Layer utilization (%)
system.tol2bus.respLayer16.occupancy          3147176                       # Layer occupancy (ticks)
system.tol2bus.respLayer16.utilization            0.2                       # Layer utilization (%)
system.tol2bus.respLayer17.occupancy          4563743                       # Layer occupancy (ticks)
system.tol2bus.respLayer17.utilization            0.4                       # Layer utilization (%)
system.tol2bus.respLayer18.occupancy          3270718                       # Layer occupancy (ticks)
system.tol2bus.respLayer18.utilization            0.3                       # Layer utilization (%)
system.tol2bus.respLayer19.occupancy          5271790                       # Layer occupancy (ticks)
system.tol2bus.respLayer19.utilization            0.4                       # Layer utilization (%)
system.tol2bus.respLayer20.occupancy          2408801                       # Layer occupancy (ticks)
system.tol2bus.respLayer20.utilization            0.2                       # Layer utilization (%)
system.tol2bus.respLayer21.occupancy          3019773                       # Layer occupancy (ticks)
system.tol2bus.respLayer21.utilization            0.2                       # Layer utilization (%)
system.tol2bus.respLayer22.occupancy          3459392                       # Layer occupancy (ticks)
system.tol2bus.respLayer22.utilization            0.3                       # Layer utilization (%)
system.tol2bus.respLayer23.occupancy          5255357                       # Layer occupancy (ticks)
system.tol2bus.respLayer23.utilization            0.4                       # Layer utilization (%)
system.tol2bus.respLayer24.occupancy          3277833                       # Layer occupancy (ticks)
system.tol2bus.respLayer24.utilization            0.3                       # Layer utilization (%)
system.tol2bus.respLayer25.occupancy          3556253                       # Layer occupancy (ticks)
system.tol2bus.respLayer25.utilization            0.3                       # Layer utilization (%)
system.tol2bus.respLayer26.occupancy          1674530                       # Layer occupancy (ticks)
system.tol2bus.respLayer26.utilization            0.1                       # Layer utilization (%)
system.tol2bus.respLayer27.occupancy          2082777                       # Layer occupancy (ticks)
system.tol2bus.respLayer27.utilization            0.2                       # Layer utilization (%)
system.tol2bus.respLayer28.occupancy          1581544                       # Layer occupancy (ticks)
system.tol2bus.respLayer28.utilization            0.1                       # Layer utilization (%)
system.tol2bus.respLayer29.occupancy          2037497                       # Layer occupancy (ticks)
system.tol2bus.respLayer29.utilization            0.2                       # Layer utilization (%)
system.tol2bus.respLayer30.occupancy          1845481                       # Layer occupancy (ticks)
system.tol2bus.respLayer30.utilization            0.1                       # Layer utilization (%)
system.tol2bus.respLayer31.occupancy          2109823                       # Layer occupancy (ticks)
system.tol2bus.respLayer31.utilization            0.2                       # Layer utilization (%)

---------- End Simulation Statistics   ----------
