
---------- Begin Simulation Statistics ----------
sim_seconds                                  0.010219                       # Number of seconds simulated
sim_ticks                                 10219246227                       # Number of ticks simulated
final_tick                                10219246227                       # Number of ticks from beginning of simulation (restored from checkpoints and never reset)
sim_freq                                 1000000000000                       # Frequency of simulated ticks
host_inst_rate                                 103203                       # Simulator instruction rate (inst/s)
host_op_rate                                   103203                       # Simulator op (including micro ops) rate (op/s)
host_tick_rate                               16474586                       # Simulator tick rate (ticks/s)
host_mem_usage                                 692600                       # Number of bytes of host memory used
host_seconds                                   620.30                       # Real time elapsed on the host
sim_insts                                    64016906                       # Number of instructions simulated
sim_ops                                      64016906                       # Number of ops (including micro ops) simulated
system.voltage_domain.voltage                       1                       # Voltage in Volts
system.clk_domain.clock                          1000                       # Clock period in ticks
system.mem_ctrls.bytes_read::cpu00.inst        128832                       # Number of bytes read from this memory
system.mem_ctrls.bytes_read::cpu00.data        872000                       # Number of bytes read from this memory
system.mem_ctrls.bytes_read::cpu01.inst         12736                       # Number of bytes read from this memory
system.mem_ctrls.bytes_read::cpu01.data        592704                       # Number of bytes read from this memory
system.mem_ctrls.bytes_read::cpu02.inst          1408                       # Number of bytes read from this memory
system.mem_ctrls.bytes_read::cpu02.data        627904                       # Number of bytes read from this memory
system.mem_ctrls.bytes_read::cpu03.inst           128                       # Number of bytes read from this memory
system.mem_ctrls.bytes_read::cpu03.data        555840                       # Number of bytes read from this memory
system.mem_ctrls.bytes_read::cpu04.inst           128                       # Number of bytes read from this memory
system.mem_ctrls.bytes_read::cpu04.data        575936                       # Number of bytes read from this memory
system.mem_ctrls.bytes_read::cpu05.inst           128                       # Number of bytes read from this memory
system.mem_ctrls.bytes_read::cpu05.data        546624                       # Number of bytes read from this memory
system.mem_ctrls.bytes_read::cpu06.inst           128                       # Number of bytes read from this memory
system.mem_ctrls.bytes_read::cpu06.data        564992                       # Number of bytes read from this memory
system.mem_ctrls.bytes_read::cpu07.inst           192                       # Number of bytes read from this memory
system.mem_ctrls.bytes_read::cpu07.data        526912                       # Number of bytes read from this memory
system.mem_ctrls.bytes_read::cpu08.inst           192                       # Number of bytes read from this memory
system.mem_ctrls.bytes_read::cpu08.data        577920                       # Number of bytes read from this memory
system.mem_ctrls.bytes_read::cpu09.inst           256                       # Number of bytes read from this memory
system.mem_ctrls.bytes_read::cpu09.data        536704                       # Number of bytes read from this memory
system.mem_ctrls.bytes_read::cpu10.data        545920                       # Number of bytes read from this memory
system.mem_ctrls.bytes_read::cpu11.inst            64                       # Number of bytes read from this memory
system.mem_ctrls.bytes_read::cpu11.data        539456                       # Number of bytes read from this memory
system.mem_ctrls.bytes_read::cpu12.inst          1216                       # Number of bytes read from this memory
system.mem_ctrls.bytes_read::cpu12.data        577792                       # Number of bytes read from this memory
system.mem_ctrls.bytes_read::cpu13.data        524032                       # Number of bytes read from this memory
system.mem_ctrls.bytes_read::cpu14.inst           256                       # Number of bytes read from this memory
system.mem_ctrls.bytes_read::cpu14.data        550080                       # Number of bytes read from this memory
system.mem_ctrls.bytes_read::cpu15.inst           896                       # Number of bytes read from this memory
system.mem_ctrls.bytes_read::cpu15.data        557312                       # Number of bytes read from this memory
system.mem_ctrls.bytes_read::total            9418688                       # Number of bytes read from this memory
system.mem_ctrls.bytes_inst_read::cpu00.inst       128832                       # Number of instructions bytes read from this memory
system.mem_ctrls.bytes_inst_read::cpu01.inst        12736                       # Number of instructions bytes read from this memory
system.mem_ctrls.bytes_inst_read::cpu02.inst         1408                       # Number of instructions bytes read from this memory
system.mem_ctrls.bytes_inst_read::cpu03.inst          128                       # Number of instructions bytes read from this memory
system.mem_ctrls.bytes_inst_read::cpu04.inst          128                       # Number of instructions bytes read from this memory
system.mem_ctrls.bytes_inst_read::cpu05.inst          128                       # Number of instructions bytes read from this memory
system.mem_ctrls.bytes_inst_read::cpu06.inst          128                       # Number of instructions bytes read from this memory
system.mem_ctrls.bytes_inst_read::cpu07.inst          192                       # Number of instructions bytes read from this memory
system.mem_ctrls.bytes_inst_read::cpu08.inst          192                       # Number of instructions bytes read from this memory
system.mem_ctrls.bytes_inst_read::cpu09.inst          256                       # Number of instructions bytes read from this memory
system.mem_ctrls.bytes_inst_read::cpu11.inst           64                       # Number of instructions bytes read from this memory
system.mem_ctrls.bytes_inst_read::cpu12.inst         1216                       # Number of instructions bytes read from this memory
system.mem_ctrls.bytes_inst_read::cpu14.inst          256                       # Number of instructions bytes read from this memory
system.mem_ctrls.bytes_inst_read::cpu15.inst          896                       # Number of instructions bytes read from this memory
system.mem_ctrls.bytes_inst_read::total        146560                       # Number of instructions bytes read from this memory
system.mem_ctrls.bytes_written::writebacks      5882560                       # Number of bytes written to this memory
system.mem_ctrls.bytes_written::total         5882560                       # Number of bytes written to this memory
system.mem_ctrls.num_reads::cpu00.inst           2013                       # Number of read requests responded to by this memory
system.mem_ctrls.num_reads::cpu00.data          13625                       # Number of read requests responded to by this memory
system.mem_ctrls.num_reads::cpu01.inst            199                       # Number of read requests responded to by this memory
system.mem_ctrls.num_reads::cpu01.data           9261                       # Number of read requests responded to by this memory
system.mem_ctrls.num_reads::cpu02.inst             22                       # Number of read requests responded to by this memory
system.mem_ctrls.num_reads::cpu02.data           9811                       # Number of read requests responded to by this memory
system.mem_ctrls.num_reads::cpu03.inst              2                       # Number of read requests responded to by this memory
system.mem_ctrls.num_reads::cpu03.data           8685                       # Number of read requests responded to by this memory
system.mem_ctrls.num_reads::cpu04.inst              2                       # Number of read requests responded to by this memory
system.mem_ctrls.num_reads::cpu04.data           8999                       # Number of read requests responded to by this memory
system.mem_ctrls.num_reads::cpu05.inst              2                       # Number of read requests responded to by this memory
system.mem_ctrls.num_reads::cpu05.data           8541                       # Number of read requests responded to by this memory
system.mem_ctrls.num_reads::cpu06.inst              2                       # Number of read requests responded to by this memory
system.mem_ctrls.num_reads::cpu06.data           8828                       # Number of read requests responded to by this memory
system.mem_ctrls.num_reads::cpu07.inst              3                       # Number of read requests responded to by this memory
system.mem_ctrls.num_reads::cpu07.data           8233                       # Number of read requests responded to by this memory
system.mem_ctrls.num_reads::cpu08.inst              3                       # Number of read requests responded to by this memory
system.mem_ctrls.num_reads::cpu08.data           9030                       # Number of read requests responded to by this memory
system.mem_ctrls.num_reads::cpu09.inst              4                       # Number of read requests responded to by this memory
system.mem_ctrls.num_reads::cpu09.data           8386                       # Number of read requests responded to by this memory
system.mem_ctrls.num_reads::cpu10.data           8530                       # Number of read requests responded to by this memory
system.mem_ctrls.num_reads::cpu11.inst              1                       # Number of read requests responded to by this memory
system.mem_ctrls.num_reads::cpu11.data           8429                       # Number of read requests responded to by this memory
system.mem_ctrls.num_reads::cpu12.inst             19                       # Number of read requests responded to by this memory
system.mem_ctrls.num_reads::cpu12.data           9028                       # Number of read requests responded to by this memory
system.mem_ctrls.num_reads::cpu13.data           8188                       # Number of read requests responded to by this memory
system.mem_ctrls.num_reads::cpu14.inst              4                       # Number of read requests responded to by this memory
system.mem_ctrls.num_reads::cpu14.data           8595                       # Number of read requests responded to by this memory
system.mem_ctrls.num_reads::cpu15.inst             14                       # Number of read requests responded to by this memory
system.mem_ctrls.num_reads::cpu15.data           8708                       # Number of read requests responded to by this memory
system.mem_ctrls.num_reads::total              147167                       # Number of read requests responded to by this memory
system.mem_ctrls.num_writes::writebacks         91915                       # Number of write requests responded to by this memory
system.mem_ctrls.num_writes::total              91915                       # Number of write requests responded to by this memory
system.mem_ctrls.bw_read::cpu00.inst         12606801                       # Total read bandwidth from this memory (bytes/s)
system.mem_ctrls.bw_read::cpu00.data         85329190                       # Total read bandwidth from this memory (bytes/s)
system.mem_ctrls.bw_read::cpu01.inst          1246276                       # Total read bandwidth from this memory (bytes/s)
system.mem_ctrls.bw_read::cpu01.data         57998798                       # Total read bandwidth from this memory (bytes/s)
system.mem_ctrls.bw_read::cpu02.inst           137779                       # Total read bandwidth from this memory (bytes/s)
system.mem_ctrls.bw_read::cpu02.data         61443279                       # Total read bandwidth from this memory (bytes/s)
system.mem_ctrls.bw_read::cpu03.inst            12525                       # Total read bandwidth from this memory (bytes/s)
system.mem_ctrls.bw_read::cpu03.data         54391487                       # Total read bandwidth from this memory (bytes/s)
system.mem_ctrls.bw_read::cpu04.inst            12525                       # Total read bandwidth from this memory (bytes/s)
system.mem_ctrls.bw_read::cpu04.data         56357973                       # Total read bandwidth from this memory (bytes/s)
system.mem_ctrls.bw_read::cpu05.inst            12525                       # Total read bandwidth from this memory (bytes/s)
system.mem_ctrls.bw_read::cpu05.data         53489659                       # Total read bandwidth from this memory (bytes/s)
system.mem_ctrls.bw_read::cpu06.inst            12525                       # Total read bandwidth from this memory (bytes/s)
system.mem_ctrls.bw_read::cpu06.data         55287052                       # Total read bandwidth from this memory (bytes/s)
system.mem_ctrls.bw_read::cpu07.inst            18788                       # Total read bandwidth from this memory (bytes/s)
system.mem_ctrls.bw_read::cpu07.data         51560750                       # Total read bandwidth from this memory (bytes/s)
system.mem_ctrls.bw_read::cpu08.inst            18788                       # Total read bandwidth from this memory (bytes/s)
system.mem_ctrls.bw_read::cpu08.data         56552116                       # Total read bandwidth from this memory (bytes/s)
system.mem_ctrls.bw_read::cpu09.inst            25051                       # Total read bandwidth from this memory (bytes/s)
system.mem_ctrls.bw_read::cpu09.data         52518942                       # Total read bandwidth from this memory (bytes/s)
system.mem_ctrls.bw_read::cpu10.data         53420770                       # Total read bandwidth from this memory (bytes/s)
system.mem_ctrls.bw_read::cpu11.inst             6263                       # Total read bandwidth from this memory (bytes/s)
system.mem_ctrls.bw_read::cpu11.data         52788238                       # Total read bandwidth from this memory (bytes/s)
system.mem_ctrls.bw_read::cpu12.inst           118991                       # Total read bandwidth from this memory (bytes/s)
system.mem_ctrls.bw_read::cpu12.data         56539591                       # Total read bandwidth from this memory (bytes/s)
system.mem_ctrls.bw_read::cpu13.data         51278929                       # Total read bandwidth from this memory (bytes/s)
system.mem_ctrls.bw_read::cpu14.inst            25051                       # Total read bandwidth from this memory (bytes/s)
system.mem_ctrls.bw_read::cpu14.data         53827845                       # Total read bandwidth from this memory (bytes/s)
system.mem_ctrls.bw_read::cpu15.inst            87678                       # Total read bandwidth from this memory (bytes/s)
system.mem_ctrls.bw_read::cpu15.data         54535529                       # Total read bandwidth from this memory (bytes/s)
system.mem_ctrls.bw_read::total             921661715                       # Total read bandwidth from this memory (bytes/s)
system.mem_ctrls.bw_inst_read::cpu00.inst     12606801                       # Instruction read bandwidth from this memory (bytes/s)
system.mem_ctrls.bw_inst_read::cpu01.inst      1246276                       # Instruction read bandwidth from this memory (bytes/s)
system.mem_ctrls.bw_inst_read::cpu02.inst       137779                       # Instruction read bandwidth from this memory (bytes/s)
system.mem_ctrls.bw_inst_read::cpu03.inst        12525                       # Instruction read bandwidth from this memory (bytes/s)
system.mem_ctrls.bw_inst_read::cpu04.inst        12525                       # Instruction read bandwidth from this memory (bytes/s)
system.mem_ctrls.bw_inst_read::cpu05.inst        12525                       # Instruction read bandwidth from this memory (bytes/s)
system.mem_ctrls.bw_inst_read::cpu06.inst        12525                       # Instruction read bandwidth from this memory (bytes/s)
system.mem_ctrls.bw_inst_read::cpu07.inst        18788                       # Instruction read bandwidth from this memory (bytes/s)
system.mem_ctrls.bw_inst_read::cpu08.inst        18788                       # Instruction read bandwidth from this memory (bytes/s)
system.mem_ctrls.bw_inst_read::cpu09.inst        25051                       # Instruction read bandwidth from this memory (bytes/s)
system.mem_ctrls.bw_inst_read::cpu11.inst         6263                       # Instruction read bandwidth from this memory (bytes/s)
system.mem_ctrls.bw_inst_read::cpu12.inst       118991                       # Instruction read bandwidth from this memory (bytes/s)
system.mem_ctrls.bw_inst_read::cpu14.inst        25051                       # Instruction read bandwidth from this memory (bytes/s)
system.mem_ctrls.bw_inst_read::cpu15.inst        87678                       # Instruction read bandwidth from this memory (bytes/s)
system.mem_ctrls.bw_inst_read::total         14341567                       # Instruction read bandwidth from this memory (bytes/s)
system.mem_ctrls.bw_write::writebacks       575635411                       # Write bandwidth from this memory (bytes/s)
system.mem_ctrls.bw_write::total            575635411                       # Write bandwidth from this memory (bytes/s)
system.mem_ctrls.bw_total::writebacks       575635411                       # Total bandwidth to/from this memory (bytes/s)
system.mem_ctrls.bw_total::cpu00.inst        12606801                       # Total bandwidth to/from this memory (bytes/s)
system.mem_ctrls.bw_total::cpu00.data        85329190                       # Total bandwidth to/from this memory (bytes/s)
system.mem_ctrls.bw_total::cpu01.inst         1246276                       # Total bandwidth to/from this memory (bytes/s)
system.mem_ctrls.bw_total::cpu01.data        57998798                       # Total bandwidth to/from this memory (bytes/s)
system.mem_ctrls.bw_total::cpu02.inst          137779                       # Total bandwidth to/from this memory (bytes/s)
system.mem_ctrls.bw_total::cpu02.data        61443279                       # Total bandwidth to/from this memory (bytes/s)
system.mem_ctrls.bw_total::cpu03.inst           12525                       # Total bandwidth to/from this memory (bytes/s)
system.mem_ctrls.bw_total::cpu03.data        54391487                       # Total bandwidth to/from this memory (bytes/s)
system.mem_ctrls.bw_total::cpu04.inst           12525                       # Total bandwidth to/from this memory (bytes/s)
system.mem_ctrls.bw_total::cpu04.data        56357973                       # Total bandwidth to/from this memory (bytes/s)
system.mem_ctrls.bw_total::cpu05.inst           12525                       # Total bandwidth to/from this memory (bytes/s)
system.mem_ctrls.bw_total::cpu05.data        53489659                       # Total bandwidth to/from this memory (bytes/s)
system.mem_ctrls.bw_total::cpu06.inst           12525                       # Total bandwidth to/from this memory (bytes/s)
system.mem_ctrls.bw_total::cpu06.data        55287052                       # Total bandwidth to/from this memory (bytes/s)
system.mem_ctrls.bw_total::cpu07.inst           18788                       # Total bandwidth to/from this memory (bytes/s)
system.mem_ctrls.bw_total::cpu07.data        51560750                       # Total bandwidth to/from this memory (bytes/s)
system.mem_ctrls.bw_total::cpu08.inst           18788                       # Total bandwidth to/from this memory (bytes/s)
system.mem_ctrls.bw_total::cpu08.data        56552116                       # Total bandwidth to/from this memory (bytes/s)
system.mem_ctrls.bw_total::cpu09.inst           25051                       # Total bandwidth to/from this memory (bytes/s)
system.mem_ctrls.bw_total::cpu09.data        52518942                       # Total bandwidth to/from this memory (bytes/s)
system.mem_ctrls.bw_total::cpu10.data        53420770                       # Total bandwidth to/from this memory (bytes/s)
system.mem_ctrls.bw_total::cpu11.inst            6263                       # Total bandwidth to/from this memory (bytes/s)
system.mem_ctrls.bw_total::cpu11.data        52788238                       # Total bandwidth to/from this memory (bytes/s)
system.mem_ctrls.bw_total::cpu12.inst          118991                       # Total bandwidth to/from this memory (bytes/s)
system.mem_ctrls.bw_total::cpu12.data        56539591                       # Total bandwidth to/from this memory (bytes/s)
system.mem_ctrls.bw_total::cpu13.data        51278929                       # Total bandwidth to/from this memory (bytes/s)
system.mem_ctrls.bw_total::cpu14.inst           25051                       # Total bandwidth to/from this memory (bytes/s)
system.mem_ctrls.bw_total::cpu14.data        53827845                       # Total bandwidth to/from this memory (bytes/s)
system.mem_ctrls.bw_total::cpu15.inst           87678                       # Total bandwidth to/from this memory (bytes/s)
system.mem_ctrls.bw_total::cpu15.data        54535529                       # Total bandwidth to/from this memory (bytes/s)
system.mem_ctrls.bw_total::total           1497297125                       # Total bandwidth to/from this memory (bytes/s)
system.cpu00.branchPred.lookups                332686                       # Number of BP lookups
system.cpu00.branchPred.condPredicted          167443                       # Number of conditional branches predicted
system.cpu00.branchPred.condIncorrect            5296                       # Number of conditional branches incorrect
system.cpu00.branchPred.BTBLookups             233338                       # Number of BTB lookups
system.cpu00.branchPred.BTBHits                210703                       # Number of BTB hits
system.cpu00.branchPred.BTBCorrect                  0                       # Number of correct BTB predictions (this stat may not work properly.
system.cpu00.branchPred.BTBHitPct           90.299480                       # BTB Hit Percentage
system.cpu00.branchPred.usedRAS                 79654                       # Number of times the RAS was used to get a target.
system.cpu00.branchPred.RASInCorrect               82                       # Number of incorrect RAS predictions.
system.cpu00.branchPred.indirectLookups          1712                       # Number of indirect predictor lookups.
system.cpu00.branchPred.indirectHits              982                       # Number of indirect target hits.
system.cpu00.branchPred.indirectMisses            730                       # Number of indirect misses.
system.cpu00.branchPredindirectMispredicted          231                       # Number of mispredicted indirect branches.
system.cpu_voltage_domain.voltage                   1                       # Voltage in Volts
system.cpu_clk_domain.clock                      1161                       # Clock period in ticks
system.cpu00.dtb.fetch_hits                         0                       # ITB hits
system.cpu00.dtb.fetch_misses                       0                       # ITB misses
system.cpu00.dtb.fetch_acv                          0                       # ITB acv
system.cpu00.dtb.fetch_accesses                     0                       # ITB accesses
system.cpu00.dtb.read_hits                    1178732                       # DTB read hits
system.cpu00.dtb.read_misses                     7859                       # DTB read misses
system.cpu00.dtb.read_acv                           2                       # DTB read access violations
system.cpu00.dtb.read_accesses                1186591                       # DTB read accesses
system.cpu00.dtb.write_hits                    354528                       # DTB write hits
system.cpu00.dtb.write_misses                   59797                       # DTB write misses
system.cpu00.dtb.write_acv                          0                       # DTB write access violations
system.cpu00.dtb.write_accesses                414325                       # DTB write accesses
system.cpu00.dtb.data_hits                    1533260                       # DTB hits
system.cpu00.dtb.data_misses                    67656                       # DTB misses
system.cpu00.dtb.data_acv                           2                       # DTB access violations
system.cpu00.dtb.data_accesses                1600916                       # DTB accesses
system.cpu00.itb.fetch_hits                    767464                       # ITB hits
system.cpu00.itb.fetch_misses                     168                       # ITB misses
system.cpu00.itb.fetch_acv                          0                       # ITB acv
system.cpu00.itb.fetch_accesses                767632                       # ITB accesses
system.cpu00.itb.read_hits                          0                       # DTB read hits
system.cpu00.itb.read_misses                        0                       # DTB read misses
system.cpu00.itb.read_acv                           0                       # DTB read access violations
system.cpu00.itb.read_accesses                      0                       # DTB read accesses
system.cpu00.itb.write_hits                         0                       # DTB write hits
system.cpu00.itb.write_misses                       0                       # DTB write misses
system.cpu00.itb.write_acv                          0                       # DTB write access violations
system.cpu00.itb.write_accesses                     0                       # DTB write accesses
system.cpu00.itb.data_hits                          0                       # DTB hits
system.cpu00.itb.data_misses                        0                       # DTB misses
system.cpu00.itb.data_acv                           0                       # DTB access violations
system.cpu00.itb.data_accesses                      0                       # DTB accesses
system.cpu00.workload.num_syscalls               1717                       # Number of system calls
system.cpu00.numCycles                        8497274                       # number of cpu cycles simulated
system.cpu00.numWorkItemsStarted                    0                       # number of work items this cpu started
system.cpu00.numWorkItemsCompleted                  0                       # number of work items this cpu completed
system.cpu00.fetch.icacheStallCycles            91026                       # Number of cycles fetch is stalled on an Icache miss
system.cpu00.fetch.Insts                      7375147                       # Number of instructions fetch has processed
system.cpu00.fetch.Branches                    332686                       # Number of branches that fetch encountered
system.cpu00.fetch.predictedBranches           291339                       # Number of branches that fetch has predicted taken
system.cpu00.fetch.Cycles                     8159946                       # Number of cycles fetch has run and was not squashing or blocked
system.cpu00.fetch.SquashCycles                 48436                       # Number of cycles fetch has spent squashing
system.cpu00.fetch.MiscStallCycles                 97                       # Number of cycles fetch has spent waiting on interrupts, or bad addresses, or out of MSHRs
system.cpu00.fetch.PendingTrapStallCycles         6921                       # Number of stall cycles due to pending traps
system.cpu00.fetch.IcacheWaitRetryStallCycles           74                       # Number of stall cycles due to full MSHR
system.cpu00.fetch.CacheLines                  767464                       # Number of cache lines fetched
system.cpu00.fetch.IcacheSquashes                2548                       # Number of outstanding Icache misses that were squashed
system.cpu00.fetch.rateDist::samples          8282282                       # Number of instructions fetched each cycle (Total)
system.cpu00.fetch.rateDist::mean            0.890473                       # Number of instructions fetched each cycle (Total)
system.cpu00.fetch.rateDist::stdev           2.249470                       # Number of instructions fetched each cycle (Total)
system.cpu00.fetch.rateDist::underflows             0      0.00%      0.00% # Number of instructions fetched each cycle (Total)
system.cpu00.fetch.rateDist::0                6930444     83.68%     83.68% # Number of instructions fetched each cycle (Total)
system.cpu00.fetch.rateDist::1                  35589      0.43%     84.11% # Number of instructions fetched each cycle (Total)
system.cpu00.fetch.rateDist::2                 258677      3.12%     87.23% # Number of instructions fetched each cycle (Total)
system.cpu00.fetch.rateDist::3                  29671      0.36%     87.59% # Number of instructions fetched each cycle (Total)
system.cpu00.fetch.rateDist::4                 269129      3.25%     90.84% # Number of instructions fetched each cycle (Total)
system.cpu00.fetch.rateDist::5                  49286      0.60%     91.43% # Number of instructions fetched each cycle (Total)
system.cpu00.fetch.rateDist::6                  89333      1.08%     92.51% # Number of instructions fetched each cycle (Total)
system.cpu00.fetch.rateDist::7                  86977      1.05%     93.56% # Number of instructions fetched each cycle (Total)
system.cpu00.fetch.rateDist::8                 533176      6.44%    100.00% # Number of instructions fetched each cycle (Total)
system.cpu00.fetch.rateDist::overflows              0      0.00%    100.00% # Number of instructions fetched each cycle (Total)
system.cpu00.fetch.rateDist::min_value              0                       # Number of instructions fetched each cycle (Total)
system.cpu00.fetch.rateDist::max_value              8                       # Number of instructions fetched each cycle (Total)
system.cpu00.fetch.rateDist::total            8282282                       # Number of instructions fetched each cycle (Total)
system.cpu00.fetch.branchRate                0.039152                       # Number of branch fetches per cycle
system.cpu00.fetch.rate                      0.867943                       # Number of inst fetches per cycle
system.cpu00.decode.IdleCycles                 259040                       # Number of cycles decode is idle
system.cpu00.decode.BlockedCycles             7159058                       # Number of cycles decode is blocked
system.cpu00.decode.RunCycles                  334414                       # Number of cycles decode is running
system.cpu00.decode.UnblockCycles              507198                       # Number of cycles decode is unblocking
system.cpu00.decode.SquashCycles                22572                       # Number of cycles decode is squashing
system.cpu00.decode.BranchResolved              81632                       # Number of times decode resolved a branch
system.cpu00.decode.BranchMispred                1705                       # Number of times decode detected a branch misprediction
system.cpu00.decode.DecodedInsts              6491863                       # Number of instructions handled by decode
system.cpu00.decode.SquashedInsts                7002                       # Number of squashed instructions handled by decode
system.cpu00.rename.SquashCycles                22572                       # Number of cycles rename is squashing
system.cpu00.rename.IdleCycles                 381431                       # Number of cycles rename is idle
system.cpu00.rename.BlockCycles               3082778                       # Number of cycles rename is blocking
system.cpu00.rename.serializeStallCycles        93892                       # count of cycles rename stalled for serializing inst
system.cpu00.rename.RunCycles                  641124                       # Number of cycles rename is running
system.cpu00.rename.UnblockCycles             4060485                       # Number of cycles rename is unblocking
system.cpu00.rename.RenamedInsts              6326076                       # Number of instructions processed by rename
system.cpu00.rename.ROBFullEvents                2769                       # Number of times rename has blocked due to ROB full
system.cpu00.rename.IQFullEvents              2083620                       # Number of times rename has blocked due to IQ full
system.cpu00.rename.LQFullEvents              1671172                       # Number of times rename has blocked due to LQ full
system.cpu00.rename.SQFullEvents               268998                       # Number of times rename has blocked due to SQ full
system.cpu00.rename.RenamedOperands           5427211                       # Number of destination operands rename has renamed
system.cpu00.rename.RenameLookups             9149957                       # Number of register rename lookups that rename has made
system.cpu00.rename.int_rename_lookups        5131712                       # Number of integer rename lookups
system.cpu00.rename.fp_rename_lookups         4017993                       # Number of floating rename lookups
system.cpu00.rename.CommittedMaps             3930945                       # Number of HB maps that are committed
system.cpu00.rename.UndoneMaps                1496266                       # Number of HB maps that are undone due to squashing
system.cpu00.rename.serializingInsts             2288                       # count of serializing insts renamed
system.cpu00.rename.tempSerializingInsts         1947                       # count of temporary serializing insts renamed
system.cpu00.rename.skidInsts                 3383910                       # count of insts added to the skid buffer
system.cpu00.memDep0.insertedLoads            1197942                       # Number of loads inserted to the mem dependence unit.
system.cpu00.memDep0.insertedStores            532638                       # Number of stores inserted to the mem dependence unit.
system.cpu00.memDep0.conflictingLoads          372290                       # Number of conflicting loads.
system.cpu00.memDep0.conflictingStores         193887                       # Number of conflicting stores.
system.cpu00.iq.iqInstsAdded                  6222904                       # Number of instructions added to the IQ (excludes non-spec)
system.cpu00.iq.iqNonSpecInstsAdded              3189                       # Number of non-speculative instructions added to the IQ
system.cpu00.iq.iqInstsIssued                 5929503                       # Number of instructions issued
system.cpu00.iq.iqSquashedInstsIssued            6793                       # Number of squashed instructions issued
system.cpu00.iq.iqSquashedInstsExamined       1880443                       # Number of squashed instructions iterated over during squash; mainly for profiling
system.cpu00.iq.iqSquashedOperandsExamined       776070                       # Number of squashed operands that are examined and possibly removed from graph
system.cpu00.iq.iqSquashedNonSpecRemoved          486                       # Number of squashed non-spec instructions that were removed
system.cpu00.iq.issued_per_cycle::samples      8282282                       # Number of insts issued each cycle
system.cpu00.iq.issued_per_cycle::mean       0.715926                       # Number of insts issued each cycle
system.cpu00.iq.issued_per_cycle::stdev      1.206777                       # Number of insts issued each cycle
system.cpu00.iq.issued_per_cycle::underflows            0      0.00%      0.00% # Number of insts issued each cycle
system.cpu00.iq.issued_per_cycle::0           4805055     58.02%     58.02% # Number of insts issued each cycle
system.cpu00.iq.issued_per_cycle::1           2247086     27.13%     85.15% # Number of insts issued each cycle
system.cpu00.iq.issued_per_cycle::2            715971      8.64%     93.79% # Number of insts issued each cycle
system.cpu00.iq.issued_per_cycle::3            218417      2.64%     96.43% # Number of insts issued each cycle
system.cpu00.iq.issued_per_cycle::4            115707      1.40%     97.83% # Number of insts issued each cycle
system.cpu00.iq.issued_per_cycle::5             64670      0.78%     98.61% # Number of insts issued each cycle
system.cpu00.iq.issued_per_cycle::6             43618      0.53%     99.13% # Number of insts issued each cycle
system.cpu00.iq.issued_per_cycle::7             26726      0.32%     99.46% # Number of insts issued each cycle
system.cpu00.iq.issued_per_cycle::8             45032      0.54%    100.00% # Number of insts issued each cycle
system.cpu00.iq.issued_per_cycle::overflows            0      0.00%    100.00% # Number of insts issued each cycle
system.cpu00.iq.issued_per_cycle::min_value            0                       # Number of insts issued each cycle
system.cpu00.iq.issued_per_cycle::max_value            8                       # Number of insts issued each cycle
system.cpu00.iq.issued_per_cycle::total       8282282                       # Number of insts issued each cycle
system.cpu00.iq.fu_full::No_OpClass                 0      0.00%      0.00% # attempts to use FU when none available
system.cpu00.iq.fu_full::IntAlu                  4063      9.20%      9.20% # attempts to use FU when none available
system.cpu00.iq.fu_full::IntMult                    0      0.00%      9.20% # attempts to use FU when none available
system.cpu00.iq.fu_full::IntDiv                     0      0.00%      9.20% # attempts to use FU when none available
system.cpu00.iq.fu_full::FloatAdd                   0      0.00%      9.20% # attempts to use FU when none available
system.cpu00.iq.fu_full::FloatCmp                   0      0.00%      9.20% # attempts to use FU when none available
system.cpu00.iq.fu_full::FloatCvt                   0      0.00%      9.20% # attempts to use FU when none available
system.cpu00.iq.fu_full::FloatMult               8237     18.65%     27.85% # attempts to use FU when none available
system.cpu00.iq.fu_full::FloatDiv                   0      0.00%     27.85% # attempts to use FU when none available
system.cpu00.iq.fu_full::FloatSqrt                  0      0.00%     27.85% # attempts to use FU when none available
system.cpu00.iq.fu_full::SimdAdd                    0      0.00%     27.85% # attempts to use FU when none available
system.cpu00.iq.fu_full::SimdAddAcc                 0      0.00%     27.85% # attempts to use FU when none available
system.cpu00.iq.fu_full::SimdAlu                    0      0.00%     27.85% # attempts to use FU when none available
system.cpu00.iq.fu_full::SimdCmp                    0      0.00%     27.85% # attempts to use FU when none available
system.cpu00.iq.fu_full::SimdCvt                    0      0.00%     27.85% # attempts to use FU when none available
system.cpu00.iq.fu_full::SimdMisc                   0      0.00%     27.85% # attempts to use FU when none available
system.cpu00.iq.fu_full::SimdMult                   0      0.00%     27.85% # attempts to use FU when none available
system.cpu00.iq.fu_full::SimdMultAcc                0      0.00%     27.85% # attempts to use FU when none available
system.cpu00.iq.fu_full::SimdShift                  0      0.00%     27.85% # attempts to use FU when none available
system.cpu00.iq.fu_full::SimdShiftAcc               0      0.00%     27.85% # attempts to use FU when none available
system.cpu00.iq.fu_full::SimdSqrt                   0      0.00%     27.85% # attempts to use FU when none available
system.cpu00.iq.fu_full::SimdFloatAdd               0      0.00%     27.85% # attempts to use FU when none available
system.cpu00.iq.fu_full::SimdFloatAlu               0      0.00%     27.85% # attempts to use FU when none available
system.cpu00.iq.fu_full::SimdFloatCmp               0      0.00%     27.85% # attempts to use FU when none available
system.cpu00.iq.fu_full::SimdFloatCvt               0      0.00%     27.85% # attempts to use FU when none available
system.cpu00.iq.fu_full::SimdFloatDiv               0      0.00%     27.85% # attempts to use FU when none available
system.cpu00.iq.fu_full::SimdFloatMisc              0      0.00%     27.85% # attempts to use FU when none available
system.cpu00.iq.fu_full::SimdFloatMult              0      0.00%     27.85% # attempts to use FU when none available
system.cpu00.iq.fu_full::SimdFloatMultAcc            0      0.00%     27.85% # attempts to use FU when none available
system.cpu00.iq.fu_full::SimdFloatSqrt              0      0.00%     27.85% # attempts to use FU when none available
system.cpu00.iq.fu_full::MemRead                24770     56.09%     83.95% # attempts to use FU when none available
system.cpu00.iq.fu_full::MemWrite                7088     16.05%    100.00% # attempts to use FU when none available
system.cpu00.iq.fu_full::IprAccess                  0      0.00%    100.00% # attempts to use FU when none available
system.cpu00.iq.fu_full::InstPrefetch               0      0.00%    100.00% # attempts to use FU when none available
system.cpu00.iq.FU_type_0::No_OpClass               0      0.00%      0.00% # Type of FU issued
system.cpu00.iq.FU_type_0::IntAlu             1755555     29.61%     29.61% # Type of FU issued
system.cpu00.iq.FU_type_0::IntMult                251      0.00%     29.61% # Type of FU issued
system.cpu00.iq.FU_type_0::IntDiv                   0      0.00%     29.61% # Type of FU issued
system.cpu00.iq.FU_type_0::FloatAdd           1713564     28.90%     58.51% # Type of FU issued
system.cpu00.iq.FU_type_0::FloatCmp                11      0.00%     58.51% # Type of FU issued
system.cpu00.iq.FU_type_0::FloatCvt                 0      0.00%     58.51% # Type of FU issued
system.cpu00.iq.FU_type_0::FloatMult           852373     14.38%     72.89% # Type of FU issued
system.cpu00.iq.FU_type_0::FloatDiv                 0      0.00%     72.89% # Type of FU issued
system.cpu00.iq.FU_type_0::FloatSqrt                0      0.00%     72.89% # Type of FU issued
system.cpu00.iq.FU_type_0::SimdAdd                  0      0.00%     72.89% # Type of FU issued
system.cpu00.iq.FU_type_0::SimdAddAcc               0      0.00%     72.89% # Type of FU issued
system.cpu00.iq.FU_type_0::SimdAlu                  0      0.00%     72.89% # Type of FU issued
system.cpu00.iq.FU_type_0::SimdCmp                  0      0.00%     72.89% # Type of FU issued
system.cpu00.iq.FU_type_0::SimdCvt                  0      0.00%     72.89% # Type of FU issued
system.cpu00.iq.FU_type_0::SimdMisc                 0      0.00%     72.89% # Type of FU issued
system.cpu00.iq.FU_type_0::SimdMult                 0      0.00%     72.89% # Type of FU issued
system.cpu00.iq.FU_type_0::SimdMultAcc              0      0.00%     72.89% # Type of FU issued
system.cpu00.iq.FU_type_0::SimdShift                0      0.00%     72.89% # Type of FU issued
system.cpu00.iq.FU_type_0::SimdShiftAcc             0      0.00%     72.89% # Type of FU issued
system.cpu00.iq.FU_type_0::SimdSqrt                 0      0.00%     72.89% # Type of FU issued
system.cpu00.iq.FU_type_0::SimdFloatAdd             0      0.00%     72.89% # Type of FU issued
system.cpu00.iq.FU_type_0::SimdFloatAlu             0      0.00%     72.89% # Type of FU issued
system.cpu00.iq.FU_type_0::SimdFloatCmp             0      0.00%     72.89% # Type of FU issued
system.cpu00.iq.FU_type_0::SimdFloatCvt             0      0.00%     72.89% # Type of FU issued
system.cpu00.iq.FU_type_0::SimdFloatDiv             0      0.00%     72.89% # Type of FU issued
system.cpu00.iq.FU_type_0::SimdFloatMisc            0      0.00%     72.89% # Type of FU issued
system.cpu00.iq.FU_type_0::SimdFloatMult            0      0.00%     72.89% # Type of FU issued
system.cpu00.iq.FU_type_0::SimdFloatMultAcc            0      0.00%     72.89% # Type of FU issued
system.cpu00.iq.FU_type_0::SimdFloatSqrt            0      0.00%     72.89% # Type of FU issued
system.cpu00.iq.FU_type_0::MemRead            1191259     20.09%     92.98% # Type of FU issued
system.cpu00.iq.FU_type_0::MemWrite            416490      7.02%    100.00% # Type of FU issued
system.cpu00.iq.FU_type_0::IprAccess                0      0.00%    100.00% # Type of FU issued
system.cpu00.iq.FU_type_0::InstPrefetch             0      0.00%    100.00% # Type of FU issued
system.cpu00.iq.FU_type_0::total              5929503                       # Type of FU issued
system.cpu00.iq.rate                         0.697812                       # Inst issue rate
system.cpu00.iq.fu_busy_cnt                     44158                       # FU busy when requested
system.cpu00.iq.fu_busy_rate                 0.007447                       # FU busy rate (busy events/executed inst)
system.cpu00.iq.int_inst_queue_reads         14460506                       # Number of integer instruction queue reads
system.cpu00.iq.int_inst_queue_writes         5243069                       # Number of integer instruction queue writes
system.cpu00.iq.int_inst_queue_wakeup_accesses      2874569                       # Number of integer instruction queue wakeup accesses
system.cpu00.iq.fp_inst_queue_reads           5731733                       # Number of floating instruction queue reads
system.cpu00.iq.fp_inst_queue_writes          2863956                       # Number of floating instruction queue writes
system.cpu00.iq.fp_inst_queue_wakeup_accesses      2861626                       # Number of floating instruction queue wakeup accesses
system.cpu00.iq.int_alu_accesses              3103633                       # Number of integer alu accesses
system.cpu00.iq.fp_alu_accesses               2870028                       # Number of floating point alu accesses
system.cpu00.iew.lsq.thread0.forwLoads           9567                       # Number of loads that had data forwarded from stores
system.cpu00.iew.lsq.thread0.invAddrLoads            0                       # Number of loads ignored due to an invalid address
system.cpu00.iew.lsq.thread0.squashedLoads       595183                       # Number of loads squashed
system.cpu00.iew.lsq.thread0.ignoredResponses           47                       # Number of memory responses ignored because the instruction is squashed
system.cpu00.iew.lsq.thread0.memOrderViolation          495                       # Number of memory ordering violations
system.cpu00.iew.lsq.thread0.squashedStores       320510                       # Number of stores squashed
system.cpu00.iew.lsq.thread0.invAddrSwpfs            0                       # Number of software prefetches ignored due to an invalid address
system.cpu00.iew.lsq.thread0.blockedLoads            0                       # Number of blocked loads due to partial load-store forwarding
system.cpu00.iew.lsq.thread0.rescheduledLoads          258                       # Number of loads that were rescheduled
system.cpu00.iew.lsq.thread0.cacheBlocked       100824                       # Number of times an access to memory failed due to the cache being blocked
system.cpu00.iew.iewIdleCycles                      0                       # Number of cycles IEW is idle
system.cpu00.iew.iewSquashCycles                22572                       # Number of cycles IEW is squashing
system.cpu00.iew.iewBlockCycles                969001                       # Number of cycles IEW is blocking
system.cpu00.iew.iewUnblockCycles              796771                       # Number of cycles IEW is unblocking
system.cpu00.iew.iewDispatchedInsts           6292252                       # Number of instructions dispatched to IQ
system.cpu00.iew.iewDispSquashedInsts            1216                       # Number of squashed instructions skipped by dispatch
system.cpu00.iew.iewDispLoadInsts             1197942                       # Number of dispatched load instructions
system.cpu00.iew.iewDispStoreInsts             532638                       # Number of dispatched store instructions
system.cpu00.iew.iewDispNonSpecInsts             1863                       # Number of dispatched non-speculative instructions
system.cpu00.iew.iewIQFullEvents                44371                       # Number of times the IQ has become full, causing a stall
system.cpu00.iew.iewLSQFullEvents              646788                       # Number of times the LSQ has become full, causing a stall
system.cpu00.iew.memOrderViolationEvents          495                       # Number of memory order violations
system.cpu00.iew.predictedTakenIncorrect         1483                       # Number of branches that were predicted taken incorrectly
system.cpu00.iew.predictedNotTakenIncorrect         2938                       # Number of branches that were predicted not taken incorrectly
system.cpu00.iew.branchMispredicts               4421                       # Number of branch mispredicts detected at execute
system.cpu00.iew.iewExecutedInsts             5920501                       # Number of executed instructions
system.cpu00.iew.iewExecLoadInsts             1186608                       # Number of load instructions executed
system.cpu00.iew.iewExecSquashedInsts            9002                       # Number of squashed instructions skipped in execute
system.cpu00.iew.exec_swp                           0                       # number of swp insts executed
system.cpu00.iew.exec_nop                       66159                       # number of nop insts executed
system.cpu00.iew.exec_refs                    1600961                       # number of memory reference insts executed
system.cpu00.iew.exec_branches                 287720                       # Number of branches executed
system.cpu00.iew.exec_stores                   414353                       # Number of stores executed
system.cpu00.iew.exec_rate                   0.696753                       # Inst execution rate
system.cpu00.iew.wb_sent                      5806048                       # cumulative count of insts sent to commit
system.cpu00.iew.wb_count                     5736195                       # cumulative count of insts written-back
system.cpu00.iew.wb_producers                 4529781                       # num instructions producing a value
system.cpu00.iew.wb_consumers                 5924758                       # num instructions consuming a value
system.cpu00.iew.wb_rate                     0.675063                       # insts written-back per cycle
system.cpu00.iew.wb_fanout                   0.764551                       # average fanout of values written-back
system.cpu00.commit.commitSquashedInsts       1877749                       # The number of squashed insts skipped by commit
system.cpu00.commit.commitNonSpecStalls          2703                       # The number of times commit has been forced to stall to communicate backwards
system.cpu00.commit.branchMispredicts            3650                       # The number of times a branch was mispredicted
system.cpu00.commit.committed_per_cycle::samples      8034235                       # Number of insts commited each cycle
system.cpu00.commit.committed_per_cycle::mean     0.548146                       # Number of insts commited each cycle
system.cpu00.commit.committed_per_cycle::stdev     1.301127                       # Number of insts commited each cycle
system.cpu00.commit.committed_per_cycle::underflows            0      0.00%      0.00% # Number of insts commited each cycle
system.cpu00.commit.committed_per_cycle::0      5812195     72.34%     72.34% # Number of insts commited each cycle
system.cpu00.commit.committed_per_cycle::1      1332817     16.59%     88.93% # Number of insts commited each cycle
system.cpu00.commit.committed_per_cycle::2       495064      6.16%     95.09% # Number of insts commited each cycle
system.cpu00.commit.committed_per_cycle::3       140167      1.74%     96.84% # Number of insts commited each cycle
system.cpu00.commit.committed_per_cycle::4        20665      0.26%     97.10% # Number of insts commited each cycle
system.cpu00.commit.committed_per_cycle::5        80820      1.01%     98.10% # Number of insts commited each cycle
system.cpu00.commit.committed_per_cycle::6        12087      0.15%     98.25% # Number of insts commited each cycle
system.cpu00.commit.committed_per_cycle::7        22155      0.28%     98.53% # Number of insts commited each cycle
system.cpu00.commit.committed_per_cycle::8       118265      1.47%    100.00% # Number of insts commited each cycle
system.cpu00.commit.committed_per_cycle::overflows            0      0.00%    100.00% # Number of insts commited each cycle
system.cpu00.commit.committed_per_cycle::min_value            0                       # Number of insts commited each cycle
system.cpu00.commit.committed_per_cycle::max_value            8                       # Number of insts commited each cycle
system.cpu00.commit.committed_per_cycle::total      8034235                       # Number of insts commited each cycle
system.cpu00.commit.committedInsts            4403933                       # Number of instructions committed
system.cpu00.commit.committedOps              4403933                       # Number of ops (including micro ops) committed
system.cpu00.commit.swp_count                       0                       # Number of s/w prefetches committed
system.cpu00.commit.refs                       814887                       # Number of memory references committed
system.cpu00.commit.loads                      602759                       # Number of loads committed
system.cpu00.commit.membars                      1140                       # Number of memory barriers committed
system.cpu00.commit.branches                   242003                       # Number of branches committed
system.cpu00.commit.fp_insts                  2860888                       # Number of committed floating point instructions.
system.cpu00.commit.int_insts                 1784564                       # Number of committed integer instructions.
system.cpu00.commit.function_calls              75183                       # Number of function calls committed.
system.cpu00.commit.op_class_0::No_OpClass        58284      1.32%      1.32% # Class of committed instruction
system.cpu00.commit.op_class_0::IntAlu         964049     21.89%     23.21% # Class of committed instruction
system.cpu00.commit.op_class_0::IntMult           244      0.01%     23.22% # Class of committed instruction
system.cpu00.commit.op_class_0::IntDiv              0      0.00%     23.22% # Class of committed instruction
system.cpu00.commit.op_class_0::FloatAdd      1713053     38.90%     62.12% # Class of committed instruction
system.cpu00.commit.op_class_0::FloatCmp           10      0.00%     62.12% # Class of committed instruction
system.cpu00.commit.op_class_0::FloatCvt            0      0.00%     62.12% # Class of committed instruction
system.cpu00.commit.op_class_0::FloatMult       852265     19.35%     81.47% # Class of committed instruction
system.cpu00.commit.op_class_0::FloatDiv            0      0.00%     81.47% # Class of committed instruction
system.cpu00.commit.op_class_0::FloatSqrt            0      0.00%     81.47% # Class of committed instruction
system.cpu00.commit.op_class_0::SimdAdd             0      0.00%     81.47% # Class of committed instruction
system.cpu00.commit.op_class_0::SimdAddAcc            0      0.00%     81.47% # Class of committed instruction
system.cpu00.commit.op_class_0::SimdAlu             0      0.00%     81.47% # Class of committed instruction
system.cpu00.commit.op_class_0::SimdCmp             0      0.00%     81.47% # Class of committed instruction
system.cpu00.commit.op_class_0::SimdCvt             0      0.00%     81.47% # Class of committed instruction
system.cpu00.commit.op_class_0::SimdMisc            0      0.00%     81.47% # Class of committed instruction
system.cpu00.commit.op_class_0::SimdMult            0      0.00%     81.47% # Class of committed instruction
system.cpu00.commit.op_class_0::SimdMultAcc            0      0.00%     81.47% # Class of committed instruction
system.cpu00.commit.op_class_0::SimdShift            0      0.00%     81.47% # Class of committed instruction
system.cpu00.commit.op_class_0::SimdShiftAcc            0      0.00%     81.47% # Class of committed instruction
system.cpu00.commit.op_class_0::SimdSqrt            0      0.00%     81.47% # Class of committed instruction
system.cpu00.commit.op_class_0::SimdFloatAdd            0      0.00%     81.47% # Class of committed instruction
system.cpu00.commit.op_class_0::SimdFloatAlu            0      0.00%     81.47% # Class of committed instruction
system.cpu00.commit.op_class_0::SimdFloatCmp            0      0.00%     81.47% # Class of committed instruction
system.cpu00.commit.op_class_0::SimdFloatCvt            0      0.00%     81.47% # Class of committed instruction
system.cpu00.commit.op_class_0::SimdFloatDiv            0      0.00%     81.47% # Class of committed instruction
system.cpu00.commit.op_class_0::SimdFloatMisc            0      0.00%     81.47% # Class of committed instruction
system.cpu00.commit.op_class_0::SimdFloatMult            0      0.00%     81.47% # Class of committed instruction
system.cpu00.commit.op_class_0::SimdFloatMultAcc            0      0.00%     81.47% # Class of committed instruction
system.cpu00.commit.op_class_0::SimdFloatSqrt            0      0.00%     81.47% # Class of committed instruction
system.cpu00.commit.op_class_0::MemRead        603899     13.71%     95.18% # Class of committed instruction
system.cpu00.commit.op_class_0::MemWrite       212129      4.82%    100.00% # Class of committed instruction
system.cpu00.commit.op_class_0::IprAccess            0      0.00%    100.00% # Class of committed instruction
system.cpu00.commit.op_class_0::InstPrefetch            0      0.00%    100.00% # Class of committed instruction
system.cpu00.commit.op_class_0::total         4403933                       # Class of committed instruction
system.cpu00.commit.bw_lim_events              118265                       # number cycles where commit BW limit reached
system.cpu00.rob.rob_reads                   13957399                       # The number of ROB reads
system.cpu00.rob.rob_writes                  12811510                       # The number of ROB writes
system.cpu00.timesIdled                          1481                       # Number of times that the entire CPU went into an idle state and unscheduled itself
system.cpu00.idleCycles                        214992                       # Total number of cycles that the CPU has spent unscheduled due to idling
system.cpu00.quiesceCycles                     304834                       # Total number of cycles that CPU has spent quiesced or waiting for an interrupt
system.cpu00.committedInsts                   4345649                       # Number of Instructions Simulated
system.cpu00.committedOps                     4345649                       # Number of Ops (including micro ops) Simulated
system.cpu00.cpi                             1.955352                       # CPI: Cycles Per Instruction
system.cpu00.cpi_total                       1.955352                       # CPI: Total CPI of All Threads
system.cpu00.ipc                             0.511417                       # IPC: Instructions Per Cycle
system.cpu00.ipc_total                       0.511417                       # IPC: Total IPC of All Threads
system.cpu00.int_regfile_reads                4553416                       # number of integer regfile reads
system.cpu00.int_regfile_writes               2266405                       # number of integer regfile writes
system.cpu00.fp_regfile_reads                 4016757                       # number of floating regfile reads
system.cpu00.fp_regfile_writes                2836037                       # number of floating regfile writes
system.cpu00.misc_regfile_reads                  3013                       # number of misc regfile reads
system.cpu00.misc_regfile_writes                 2493                       # number of misc regfile writes
system.cpu00.dcache.tags.replacements           69214                       # number of replacements
system.cpu00.dcache.tags.tagsinuse          63.787881                       # Cycle average of tags in use
system.cpu00.dcache.tags.total_refs           1137207                       # Total number of references to valid blocks.
system.cpu00.dcache.tags.sampled_refs           69278                       # Sample count of references to valid blocks.
system.cpu00.dcache.tags.avg_refs           16.415125                       # Average number of references to valid blocks.
system.cpu00.dcache.tags.warmup_cycle        86665167                       # Cycle when the warmup percentage was hit.
system.cpu00.dcache.tags.occ_blocks::cpu00.data    63.787881                       # Average occupied blocks per requestor
system.cpu00.dcache.tags.occ_percent::cpu00.data     0.996686                       # Average percentage of cache occupancy
system.cpu00.dcache.tags.occ_percent::total     0.996686                       # Average percentage of cache occupancy
system.cpu00.dcache.tags.occ_task_id_blocks::1024           64                       # Occupied blocks per task id
system.cpu00.dcache.tags.age_task_id_blocks_1024::0           47                       # Occupied blocks per task id
system.cpu00.dcache.tags.age_task_id_blocks_1024::1           16                       # Occupied blocks per task id
system.cpu00.dcache.tags.age_task_id_blocks_1024::2            1                       # Occupied blocks per task id
system.cpu00.dcache.tags.occ_task_id_percent::1024            1                       # Percentage of cache occupancy per task id
system.cpu00.dcache.tags.tag_accesses         2651272                       # Number of tag accesses
system.cpu00.dcache.tags.data_accesses        2651272                       # Number of data accesses
system.cpu00.dcache.ReadReq_hits::cpu00.data      1000170                       # number of ReadReq hits
system.cpu00.dcache.ReadReq_hits::total       1000170                       # number of ReadReq hits
system.cpu00.dcache.WriteReq_hits::cpu00.data       134739                       # number of WriteReq hits
system.cpu00.dcache.WriteReq_hits::total       134739                       # number of WriteReq hits
system.cpu00.dcache.LoadLockedReq_hits::cpu00.data          972                       # number of LoadLockedReq hits
system.cpu00.dcache.LoadLockedReq_hits::total          972                       # number of LoadLockedReq hits
system.cpu00.dcache.StoreCondReq_hits::cpu00.data         1232                       # number of StoreCondReq hits
system.cpu00.dcache.StoreCondReq_hits::total         1232                       # number of StoreCondReq hits
system.cpu00.dcache.demand_hits::cpu00.data      1134909                       # number of demand (read+write) hits
system.cpu00.dcache.demand_hits::total        1134909                       # number of demand (read+write) hits
system.cpu00.dcache.overall_hits::cpu00.data      1134909                       # number of overall hits
system.cpu00.dcache.overall_hits::total       1134909                       # number of overall hits
system.cpu00.dcache.ReadReq_misses::cpu00.data        77310                       # number of ReadReq misses
system.cpu00.dcache.ReadReq_misses::total        77310                       # number of ReadReq misses
system.cpu00.dcache.WriteReq_misses::cpu00.data        76144                       # number of WriteReq misses
system.cpu00.dcache.WriteReq_misses::total        76144                       # number of WriteReq misses
system.cpu00.dcache.LoadLockedReq_misses::cpu00.data          323                       # number of LoadLockedReq misses
system.cpu00.dcache.LoadLockedReq_misses::total          323                       # number of LoadLockedReq misses
system.cpu00.dcache.StoreCondReq_misses::cpu00.data           13                       # number of StoreCondReq misses
system.cpu00.dcache.StoreCondReq_misses::total           13                       # number of StoreCondReq misses
system.cpu00.dcache.demand_misses::cpu00.data       153454                       # number of demand (read+write) misses
system.cpu00.dcache.demand_misses::total       153454                       # number of demand (read+write) misses
system.cpu00.dcache.overall_misses::cpu00.data       153454                       # number of overall misses
system.cpu00.dcache.overall_misses::total       153454                       # number of overall misses
system.cpu00.dcache.ReadReq_miss_latency::cpu00.data   6521515794                       # number of ReadReq miss cycles
system.cpu00.dcache.ReadReq_miss_latency::total   6521515794                       # number of ReadReq miss cycles
system.cpu00.dcache.WriteReq_miss_latency::cpu00.data  10911285065                       # number of WriteReq miss cycles
system.cpu00.dcache.WriteReq_miss_latency::total  10911285065                       # number of WriteReq miss cycles
system.cpu00.dcache.LoadLockedReq_miss_latency::cpu00.data      3898638                       # number of LoadLockedReq miss cycles
system.cpu00.dcache.LoadLockedReq_miss_latency::total      3898638                       # number of LoadLockedReq miss cycles
system.cpu00.dcache.StoreCondReq_miss_latency::cpu00.data        99846                       # number of StoreCondReq miss cycles
system.cpu00.dcache.StoreCondReq_miss_latency::total        99846                       # number of StoreCondReq miss cycles
system.cpu00.dcache.demand_miss_latency::cpu00.data  17432800859                       # number of demand (read+write) miss cycles
system.cpu00.dcache.demand_miss_latency::total  17432800859                       # number of demand (read+write) miss cycles
system.cpu00.dcache.overall_miss_latency::cpu00.data  17432800859                       # number of overall miss cycles
system.cpu00.dcache.overall_miss_latency::total  17432800859                       # number of overall miss cycles
system.cpu00.dcache.ReadReq_accesses::cpu00.data      1077480                       # number of ReadReq accesses(hits+misses)
system.cpu00.dcache.ReadReq_accesses::total      1077480                       # number of ReadReq accesses(hits+misses)
system.cpu00.dcache.WriteReq_accesses::cpu00.data       210883                       # number of WriteReq accesses(hits+misses)
system.cpu00.dcache.WriteReq_accesses::total       210883                       # number of WriteReq accesses(hits+misses)
system.cpu00.dcache.LoadLockedReq_accesses::cpu00.data         1295                       # number of LoadLockedReq accesses(hits+misses)
system.cpu00.dcache.LoadLockedReq_accesses::total         1295                       # number of LoadLockedReq accesses(hits+misses)
system.cpu00.dcache.StoreCondReq_accesses::cpu00.data         1245                       # number of StoreCondReq accesses(hits+misses)
system.cpu00.dcache.StoreCondReq_accesses::total         1245                       # number of StoreCondReq accesses(hits+misses)
system.cpu00.dcache.demand_accesses::cpu00.data      1288363                       # number of demand (read+write) accesses
system.cpu00.dcache.demand_accesses::total      1288363                       # number of demand (read+write) accesses
system.cpu00.dcache.overall_accesses::cpu00.data      1288363                       # number of overall (read+write) accesses
system.cpu00.dcache.overall_accesses::total      1288363                       # number of overall (read+write) accesses
system.cpu00.dcache.ReadReq_miss_rate::cpu00.data     0.071751                       # miss rate for ReadReq accesses
system.cpu00.dcache.ReadReq_miss_rate::total     0.071751                       # miss rate for ReadReq accesses
system.cpu00.dcache.WriteReq_miss_rate::cpu00.data     0.361072                       # miss rate for WriteReq accesses
system.cpu00.dcache.WriteReq_miss_rate::total     0.361072                       # miss rate for WriteReq accesses
system.cpu00.dcache.LoadLockedReq_miss_rate::cpu00.data     0.249421                       # miss rate for LoadLockedReq accesses
system.cpu00.dcache.LoadLockedReq_miss_rate::total     0.249421                       # miss rate for LoadLockedReq accesses
system.cpu00.dcache.StoreCondReq_miss_rate::cpu00.data     0.010442                       # miss rate for StoreCondReq accesses
system.cpu00.dcache.StoreCondReq_miss_rate::total     0.010442                       # miss rate for StoreCondReq accesses
system.cpu00.dcache.demand_miss_rate::cpu00.data     0.119108                       # miss rate for demand accesses
system.cpu00.dcache.demand_miss_rate::total     0.119108                       # miss rate for demand accesses
system.cpu00.dcache.overall_miss_rate::cpu00.data     0.119108                       # miss rate for overall accesses
system.cpu00.dcache.overall_miss_rate::total     0.119108                       # miss rate for overall accesses
system.cpu00.dcache.ReadReq_avg_miss_latency::cpu00.data 84355.397672                       # average ReadReq miss latency
system.cpu00.dcache.ReadReq_avg_miss_latency::total 84355.397672                       # average ReadReq miss latency
system.cpu00.dcache.WriteReq_avg_miss_latency::cpu00.data 143298.028275                       # average WriteReq miss latency
system.cpu00.dcache.WriteReq_avg_miss_latency::total 143298.028275                       # average WriteReq miss latency
system.cpu00.dcache.LoadLockedReq_avg_miss_latency::cpu00.data 12070.086687                       # average LoadLockedReq miss latency
system.cpu00.dcache.LoadLockedReq_avg_miss_latency::total 12070.086687                       # average LoadLockedReq miss latency
system.cpu00.dcache.StoreCondReq_avg_miss_latency::cpu00.data  7680.461538                       # average StoreCondReq miss latency
system.cpu00.dcache.StoreCondReq_avg_miss_latency::total  7680.461538                       # average StoreCondReq miss latency
system.cpu00.dcache.demand_avg_miss_latency::cpu00.data 113602.779067                       # average overall miss latency
system.cpu00.dcache.demand_avg_miss_latency::total 113602.779067                       # average overall miss latency
system.cpu00.dcache.overall_avg_miss_latency::cpu00.data 113602.779067                       # average overall miss latency
system.cpu00.dcache.overall_avg_miss_latency::total 113602.779067                       # average overall miss latency
system.cpu00.dcache.blocked_cycles::no_mshrs       350681                       # number of cycles access was blocked
system.cpu00.dcache.blocked_cycles::no_targets           71                       # number of cycles access was blocked
system.cpu00.dcache.blocked::no_mshrs           10865                       # number of cycles access was blocked
system.cpu00.dcache.blocked::no_targets            14                       # number of cycles access was blocked
system.cpu00.dcache.avg_blocked_cycles::no_mshrs    32.276208                       # average number of cycles each access was blocked
system.cpu00.dcache.avg_blocked_cycles::no_targets     5.071429                       # average number of cycles each access was blocked
system.cpu00.dcache.fast_writes                     0                       # number of fast writes performed
system.cpu00.dcache.cache_copies                    0                       # number of cache copies performed
system.cpu00.dcache.writebacks::writebacks        61274                       # number of writebacks
system.cpu00.dcache.writebacks::total           61274                       # number of writebacks
system.cpu00.dcache.ReadReq_mshr_hits::cpu00.data        47127                       # number of ReadReq MSHR hits
system.cpu00.dcache.ReadReq_mshr_hits::total        47127                       # number of ReadReq MSHR hits
system.cpu00.dcache.WriteReq_mshr_hits::cpu00.data        36987                       # number of WriteReq MSHR hits
system.cpu00.dcache.WriteReq_mshr_hits::total        36987                       # number of WriteReq MSHR hits
system.cpu00.dcache.LoadLockedReq_mshr_hits::cpu00.data          138                       # number of LoadLockedReq MSHR hits
system.cpu00.dcache.LoadLockedReq_mshr_hits::total          138                       # number of LoadLockedReq MSHR hits
system.cpu00.dcache.demand_mshr_hits::cpu00.data        84114                       # number of demand (read+write) MSHR hits
system.cpu00.dcache.demand_mshr_hits::total        84114                       # number of demand (read+write) MSHR hits
system.cpu00.dcache.overall_mshr_hits::cpu00.data        84114                       # number of overall MSHR hits
system.cpu00.dcache.overall_mshr_hits::total        84114                       # number of overall MSHR hits
system.cpu00.dcache.ReadReq_mshr_misses::cpu00.data        30183                       # number of ReadReq MSHR misses
system.cpu00.dcache.ReadReq_mshr_misses::total        30183                       # number of ReadReq MSHR misses
system.cpu00.dcache.WriteReq_mshr_misses::cpu00.data        39157                       # number of WriteReq MSHR misses
system.cpu00.dcache.WriteReq_mshr_misses::total        39157                       # number of WriteReq MSHR misses
system.cpu00.dcache.LoadLockedReq_mshr_misses::cpu00.data          185                       # number of LoadLockedReq MSHR misses
system.cpu00.dcache.LoadLockedReq_mshr_misses::total          185                       # number of LoadLockedReq MSHR misses
system.cpu00.dcache.StoreCondReq_mshr_misses::cpu00.data           13                       # number of StoreCondReq MSHR misses
system.cpu00.dcache.StoreCondReq_mshr_misses::total           13                       # number of StoreCondReq MSHR misses
system.cpu00.dcache.demand_mshr_misses::cpu00.data        69340                       # number of demand (read+write) MSHR misses
system.cpu00.dcache.demand_mshr_misses::total        69340                       # number of demand (read+write) MSHR misses
system.cpu00.dcache.overall_mshr_misses::cpu00.data        69340                       # number of overall MSHR misses
system.cpu00.dcache.overall_mshr_misses::total        69340                       # number of overall MSHR misses
system.cpu00.dcache.ReadReq_mshr_miss_latency::cpu00.data   2587121316                       # number of ReadReq MSHR miss cycles
system.cpu00.dcache.ReadReq_mshr_miss_latency::total   2587121316                       # number of ReadReq MSHR miss cycles
system.cpu00.dcache.WriteReq_mshr_miss_latency::cpu00.data   4859558787                       # number of WriteReq MSHR miss cycles
system.cpu00.dcache.WriteReq_mshr_miss_latency::total   4859558787                       # number of WriteReq MSHR miss cycles
system.cpu00.dcache.LoadLockedReq_mshr_miss_latency::cpu00.data      1809999                       # number of LoadLockedReq MSHR miss cycles
system.cpu00.dcache.LoadLockedReq_mshr_miss_latency::total      1809999                       # number of LoadLockedReq MSHR miss cycles
system.cpu00.dcache.StoreCondReq_mshr_miss_latency::cpu00.data        84753                       # number of StoreCondReq MSHR miss cycles
system.cpu00.dcache.StoreCondReq_mshr_miss_latency::total        84753                       # number of StoreCondReq MSHR miss cycles
system.cpu00.dcache.demand_mshr_miss_latency::cpu00.data   7446680103                       # number of demand (read+write) MSHR miss cycles
system.cpu00.dcache.demand_mshr_miss_latency::total   7446680103                       # number of demand (read+write) MSHR miss cycles
system.cpu00.dcache.overall_mshr_miss_latency::cpu00.data   7446680103                       # number of overall MSHR miss cycles
system.cpu00.dcache.overall_mshr_miss_latency::total   7446680103                       # number of overall MSHR miss cycles
system.cpu00.dcache.ReadReq_mshr_miss_rate::cpu00.data     0.028013                       # mshr miss rate for ReadReq accesses
system.cpu00.dcache.ReadReq_mshr_miss_rate::total     0.028013                       # mshr miss rate for ReadReq accesses
system.cpu00.dcache.WriteReq_mshr_miss_rate::cpu00.data     0.185681                       # mshr miss rate for WriteReq accesses
system.cpu00.dcache.WriteReq_mshr_miss_rate::total     0.185681                       # mshr miss rate for WriteReq accesses
system.cpu00.dcache.LoadLockedReq_mshr_miss_rate::cpu00.data     0.142857                       # mshr miss rate for LoadLockedReq accesses
system.cpu00.dcache.LoadLockedReq_mshr_miss_rate::total     0.142857                       # mshr miss rate for LoadLockedReq accesses
system.cpu00.dcache.StoreCondReq_mshr_miss_rate::cpu00.data     0.010442                       # mshr miss rate for StoreCondReq accesses
system.cpu00.dcache.StoreCondReq_mshr_miss_rate::total     0.010442                       # mshr miss rate for StoreCondReq accesses
system.cpu00.dcache.demand_mshr_miss_rate::cpu00.data     0.053820                       # mshr miss rate for demand accesses
system.cpu00.dcache.demand_mshr_miss_rate::total     0.053820                       # mshr miss rate for demand accesses
system.cpu00.dcache.overall_mshr_miss_rate::cpu00.data     0.053820                       # mshr miss rate for overall accesses
system.cpu00.dcache.overall_mshr_miss_rate::total     0.053820                       # mshr miss rate for overall accesses
system.cpu00.dcache.ReadReq_avg_mshr_miss_latency::cpu00.data 85714.518636                       # average ReadReq mshr miss latency
system.cpu00.dcache.ReadReq_avg_mshr_miss_latency::total 85714.518636                       # average ReadReq mshr miss latency
system.cpu00.dcache.WriteReq_avg_mshr_miss_latency::cpu00.data 124104.471410                       # average WriteReq mshr miss latency
system.cpu00.dcache.WriteReq_avg_mshr_miss_latency::total 124104.471410                       # average WriteReq mshr miss latency
system.cpu00.dcache.LoadLockedReq_avg_mshr_miss_latency::cpu00.data  9783.778378                       # average LoadLockedReq mshr miss latency
system.cpu00.dcache.LoadLockedReq_avg_mshr_miss_latency::total  9783.778378                       # average LoadLockedReq mshr miss latency
system.cpu00.dcache.StoreCondReq_avg_mshr_miss_latency::cpu00.data  6519.461538                       # average StoreCondReq mshr miss latency
system.cpu00.dcache.StoreCondReq_avg_mshr_miss_latency::total  6519.461538                       # average StoreCondReq mshr miss latency
system.cpu00.dcache.demand_avg_mshr_miss_latency::cpu00.data 107393.713628                       # average overall mshr miss latency
system.cpu00.dcache.demand_avg_mshr_miss_latency::total 107393.713628                       # average overall mshr miss latency
system.cpu00.dcache.overall_avg_mshr_miss_latency::cpu00.data 107393.713628                       # average overall mshr miss latency
system.cpu00.dcache.overall_avg_mshr_miss_latency::total 107393.713628                       # average overall mshr miss latency
system.cpu00.dcache.no_allocate_misses              0                       # Number of misses that were no-allocate
system.cpu00.icache.tags.replacements            7175                       # number of replacements
system.cpu00.icache.tags.tagsinuse         507.033172                       # Cycle average of tags in use
[...]
system.tol2bus.pkt_count_system.cpu06.dcache.mem_side::system.l2.cpu_side       163994                       # Packet count per connected master and slave (bytes)
system.tol2bus.pkt_count_system.cpu07.icache.mem_side::system.l2.cpu_side         1002                       # Packet count per connected master and slave (bytes)
system.tol2bus.pkt_count_system.cpu07.dcache.mem_side::system.l2.cpu_side       158034                       # Packet count per connected master and slave (bytes)
system.tol2bus.pkt_count_system.cpu08.icache.mem_side::system.l2.cpu_side          840                       # Packet count per connected master and slave (bytes)
system.tol2bus.pkt_count_system.cpu08.dcache.mem_side::system.l2.cpu_side       187616                       # Packet count per connected master and slave (bytes)
system.tol2bus.pkt_count_system.cpu09.icache.mem_side::system.l2.cpu_side          990                       # Packet count per connected master and slave (bytes)
system.tol2bus.pkt_count_system.cpu09.dcache.mem_side::system.l2.cpu_side       157541                       # Packet count per connected master and slave (bytes)
system.tol2bus.pkt_count_system.cpu10.icache.mem_side::system.l2.cpu_side          840                       # Packet count per connected master and slave (bytes)
system.tol2bus.pkt_count_system.cpu10.dcache.mem_side::system.l2.cpu_side       162509                       # Packet count per connected master and slave (bytes)
system.tol2bus.pkt_count_system.cpu11.icache.mem_side::system.l2.cpu_side          993                       # Packet count per connected master and slave (bytes)
system.tol2bus.pkt_count_system.cpu11.dcache.mem_side::system.l2.cpu_side       156928                       # Packet count per connected master and slave (bytes)
system.tol2bus.pkt_count_system.cpu12.icache.mem_side::system.l2.cpu_side         1089                       # Packet count per connected master and slave (bytes)
system.tol2bus.pkt_count_system.cpu12.dcache.mem_side::system.l2.cpu_side       174859                       # Packet count per connected master and slave (bytes)
system.tol2bus.pkt_count_system.cpu13.icache.mem_side::system.l2.cpu_side          842                       # Packet count per connected master and slave (bytes)
system.tol2bus.pkt_count_system.cpu13.dcache.mem_side::system.l2.cpu_side       157024                       # Packet count per connected master and slave (bytes)
system.tol2bus.pkt_count_system.cpu14.icache.mem_side::system.l2.cpu_side         1005                       # Packet count per connected master and slave (bytes)
system.tol2bus.pkt_count_system.cpu14.dcache.mem_side::system.l2.cpu_side       164985                       # Packet count per connected master and slave (bytes)
system.tol2bus.pkt_count_system.cpu15.icache.mem_side::system.l2.cpu_side          999                       # Packet count per connected master and slave (bytes)
system.tol2bus.pkt_count_system.cpu15.dcache.mem_side::system.l2.cpu_side       163267                       # Packet count per connected master and slave (bytes)
system.tol2bus.pkt_count::total               2695707                       # Packet count per connected master and slave (bytes)
system.tol2bus.pkt_size_system.cpu00.icache.mem_side::system.l2.cpu_side       951168                       # Cumulative packet size per connected master and slave (bytes)
system.tol2bus.pkt_size_system.cpu00.dcache.mem_side::system.l2.cpu_side      8337216                       # Cumulative packet size per connected master and slave (bytes)
system.tol2bus.pkt_size_system.cpu01.icache.mem_side::system.l2.cpu_side        37312                       # Cumulative packet size per connected master and slave (bytes)
system.tol2bus.pkt_size_system.cpu01.dcache.mem_side::system.l2.cpu_side      6390080                       # Cumulative packet size per connected master and slave (bytes)
system.tol2bus.pkt_size_system.cpu02.icache.mem_side::system.l2.cpu_side        29568                       # Cumulative packet size per connected master and slave (bytes)
system.tol2bus.pkt_size_system.cpu02.dcache.mem_side::system.l2.cpu_side      6598912                       # Cumulative packet size per connected master and slave (bytes)
system.tol2bus.pkt_size_system.cpu03.icache.mem_side::system.l2.cpu_side        34496                       # Cumulative packet size per connected master and slave (bytes)
system.tol2bus.pkt_size_system.cpu03.dcache.mem_side::system.l2.cpu_side      6441280                       # Cumulative packet size per connected master and slave (bytes)
system.tol2bus.pkt_size_system.cpu04.icache.mem_side::system.l2.cpu_side        28352                       # Cumulative packet size per connected master and slave (bytes)
system.tol2bus.pkt_size_system.cpu04.dcache.mem_side::system.l2.cpu_side      7186880                       # Cumulative packet size per connected master and slave (bytes)
system.tol2bus.pkt_size_system.cpu05.icache.mem_side::system.l2.cpu_side        34240                       # Cumulative packet size per connected master and slave (bytes)
system.tol2bus.pkt_size_system.cpu05.dcache.mem_side::system.l2.cpu_side      6460992                       # Cumulative packet size per connected master and slave (bytes)
system.tol2bus.pkt_size_system.cpu06.icache.mem_side::system.l2.cpu_side        28416                       # Cumulative packet size per connected master and slave (bytes)
system.tol2bus.pkt_size_system.cpu06.dcache.mem_side::system.l2.cpu_side      6745472                       # Cumulative packet size per connected master and slave (bytes)
system.tol2bus.pkt_size_system.cpu07.icache.mem_side::system.l2.cpu_side        34816                       # Cumulative packet size per connected master and slave (bytes)
system.tol2bus.pkt_size_system.cpu07.dcache.mem_side::system.l2.cpu_side      6539520                       # Cumulative packet size per connected master and slave (bytes)
system.tol2bus.pkt_size_system.cpu08.icache.mem_side::system.l2.cpu_side        28352                       # Cumulative packet size per connected master and slave (bytes)
system.tol2bus.pkt_size_system.cpu08.dcache.mem_side::system.l2.cpu_side      7767488                       # Cumulative packet size per connected master and slave (bytes)
system.tol2bus.pkt_size_system.cpu09.icache.mem_side::system.l2.cpu_side        34368                       # Cumulative packet size per connected master and slave (bytes)
system.tol2bus.pkt_size_system.cpu09.dcache.mem_side::system.l2.cpu_side      6514560                       # Cumulative packet size per connected master and slave (bytes)
system.tol2bus.pkt_size_system.cpu10.icache.mem_side::system.l2.cpu_side        28352                       # Cumulative packet size per connected master and slave (bytes)
system.tol2bus.pkt_size_system.cpu10.dcache.mem_side::system.l2.cpu_side      6705536                       # Cumulative packet size per connected master and slave (bytes)
system.tol2bus.pkt_size_system.cpu11.icache.mem_side::system.l2.cpu_side        34496                       # Cumulative packet size per connected master and slave (bytes)
system.tol2bus.pkt_size_system.cpu11.dcache.mem_side::system.l2.cpu_side      6476928                       # Cumulative packet size per connected master and slave (bytes)
system.tol2bus.pkt_size_system.cpu12.icache.mem_side::system.l2.cpu_side        38208                       # Cumulative packet size per connected master and slave (bytes)
system.tol2bus.pkt_size_system.cpu12.dcache.mem_side::system.l2.cpu_side      7207488                       # Cumulative packet size per connected master and slave (bytes)
system.tol2bus.pkt_size_system.cpu13.icache.mem_side::system.l2.cpu_side        28416                       # Cumulative packet size per connected master and slave (bytes)
system.tol2bus.pkt_size_system.cpu13.dcache.mem_side::system.l2.cpu_side      6497024                       # Cumulative packet size per connected master and slave (bytes)
system.tol2bus.pkt_size_system.cpu14.icache.mem_side::system.l2.cpu_side        34880                       # Cumulative packet size per connected master and slave (bytes)
system.tol2bus.pkt_size_system.cpu14.dcache.mem_side::system.l2.cpu_side      6788160                       # Cumulative packet size per connected master and slave (bytes)
system.tol2bus.pkt_size_system.cpu15.icache.mem_side::system.l2.cpu_side        34688                       # Cumulative packet size per connected master and slave (bytes)
system.tol2bus.pkt_size_system.cpu15.dcache.mem_side::system.l2.cpu_side      6769984                       # Cumulative packet size per connected master and slave (bytes)
system.tol2bus.pkt_size::total              110867648                       # Cumulative packet size per connected master and slave (bytes)
system.tol2bus.snoops                          137075                       # Total snoops (count)
system.tol2bus.snoop_fanout::samples          1038555                       # Request fanout histogram
system.tol2bus.snoop_fanout::mean            0.077513                       # Request fanout histogram
system.tol2bus.snoop_fanout::stdev           0.843986                       # Request fanout histogram
system.tol2bus.snoop_fanout::underflows             0      0.00%      0.00% # Request fanout histogram
system.tol2bus.snoop_fanout::0                1021804     98.39%     98.39% # Request fanout histogram
system.tol2bus.snoop_fanout::1                   6741      0.65%     99.04% # Request fanout histogram
system.tol2bus.snoop_fanout::2                   1631      0.16%     99.19% # Request fanout histogram
system.tol2bus.snoop_fanout::3                   1077      0.10%     99.30% # Request fanout histogram
system.tol2bus.snoop_fanout::4                    832      0.08%     99.38% # Request fanout histogram
system.tol2bus.snoop_fanout::5                    802      0.08%     99.45% # Request fanout histogram
system.tol2bus.snoop_fanout::6                    689      0.07%     99.52% # Request fanout histogram
system.tol2bus.snoop_fanout::7                    585      0.06%     99.58% # Request fanout histogram
system.tol2bus.snoop_fanout::8                    567      0.05%     99.63% # Request fanout histogram
system.tol2bus.snoop_fanout::9                    537      0.05%     99.68% # Request fanout histogram
system.tol2bus.snoop_fanout::10                   487      0.05%     99.73% # Request fanout histogram
system.tol2bus.snoop_fanout::11                   487      0.05%     99.78% # Request fanout histogram
system.tol2bus.snoop_fanout::12                   477      0.05%     99.82% # Request fanout histogram
system.tol2bus.snoop_fanout::13                   457      0.04%     99.87% # Request fanout histogram
system.tol2bus.snoop_fanout::14                   466      0.04%     99.91% # Request fanout histogram
system.tol2bus.snoop_fanout::15                   740      0.07%     99.98% # Request fanout histogram
system.tol2bus.snoop_fanout::16                   176      0.02%    100.00% # Request fanout histogram
system.tol2bus.snoop_fanout::17                     0      0.00%    100.00% # Request fanout histogram
system.tol2bus.snoop_fanout::18                     0      0.00%    100.00% # Request fanout histogram
system.tol2bus.snoop_fanout::19                     0      0.00%    100.00% # Request fanout histogram
system.tol2bus.snoop_fanout::20                     0      0.00%    100.00% # Request fanout histogram
system.tol2bus.snoop_fanout::21                     0      0.00%    100.00% # Request fanout histogram
system.tol2bus.snoop_fanout::22                     0      0.00%    100.00% # Request fanout histogram
system.tol2bus.snoop_fanout::23                     0      0.00%    100.00% # Request fanout histogram
system.tol2bus.snoop_fanout::24                     0      0.00%    100.00% # Request fanout histogram
system.tol2bus.snoop_fanout::25                     0      0.00%    100.00% # Request fanout histogram
system.tol2bus.snoop_fanout::26                     0      0.00%    100.00% # Request fanout histogram
system.tol2bus.snoop_fanout::27                     0      0.00%    100.00% # Request fanout histogram
system.tol2bus.snoop_fanout::28                     0      0.00%    100.00% # Request fanout histogram
system.tol2bus.snoop_fanout::29                     0      0.00%    100.00% # Request fanout histogram
system.tol2bus.snoop_fanout::30                     0      0.00%    100.00% # Request fanout histogram
system.tol2bus.snoop_fanout::31                     0      0.00%    100.00% # Request fanout histogram
system.tol2bus.snoop_fanout::32                     0      0.00%    100.00% # Request fanout histogram
system.tol2bus.snoop_fanout::overflows              0      0.00%    100.00% # Request fanout histogram
system.tol2bus.snoop_fanout::min_value              0                       # Request fanout histogram
system.tol2bus.snoop_fanout::max_value             16                       # Request fanout histogram
system.tol2bus.snoop_fanout::total            1038555                       # Request fanout histogram
system.tol2bus.reqLayer0.occupancy         4037030697                       # Layer occupancy (ticks)
system.tol2bus.reqLayer0.utilization             39.5                       # Layer utilization (%)
system.tol2bus.respLayer0.occupancy          27141248                       # Layer occupancy (ticks)
system.tol2bus.respLayer0.utilization             0.3                       # Layer utilization (%)
system.tol2bus.respLayer1.occupancy         243987520                       # Layer occupancy (ticks)
system.tol2bus.respLayer1.utilization             2.4                       # Layer utilization (%)
system.tol2bus.respLayer2.occupancy           1705131                       # Layer occupancy (ticks)
system.tol2bus.respLayer2.utilization             0.0                       # Layer utilization (%)
system.tol2bus.respLayer3.occupancy         183199579                       # Layer occupancy (ticks)
system.tol2bus.respLayer3.utilization             1.8                       # Layer utilization (%)
system.tol2bus.respLayer4.occupancy           1462778                       # Layer occupancy (ticks)
system.tol2bus.respLayer4.utilization             0.0                       # Layer utilization (%)
system.tol2bus.respLayer5.occupancy         190218992                       # Layer occupancy (ticks)
system.tol2bus.respLayer5.utilization             1.9                       # Layer utilization (%)
system.tol2bus.respLayer6.occupancy           1615565                       # Layer occupancy (ticks)
system.tol2bus.respLayer6.utilization             0.0                       # Layer utilization (%)
system.tol2bus.respLayer7.occupancy         183556876                       # Layer occupancy (ticks)
system.tol2bus.respLayer7.utilization             1.8                       # Layer utilization (%)
system.tol2bus.respLayer8.occupancy           1409345                       # Layer occupancy (ticks)
system.tol2bus.respLayer8.utilization             0.0                       # Layer utilization (%)
system.tol2bus.respLayer9.occupancy         204791422                       # Layer occupancy (ticks)
system.tol2bus.respLayer9.utilization             2.0                       # Layer utilization (%)
system.tol2bus.respLayer10.occupancy          1603794                       # Layer occupancy (ticks)
system.tol2bus.respLayer10.utilization            0.0                       # Layer utilization (%)
system.tol2bus.respLayer11.occupancy        183860222                       # Layer occupancy (ticks)
system.tol2bus.respLayer11.utilization            1.8                       # Layer utilization (%)
system.tol2bus.respLayer12.occupancy          1413085                       # Layer occupancy (ticks)
system.tol2bus.respLayer12.utilization            0.0                       # Layer utilization (%)
system.tol2bus.respLayer13.occupancy        192865000                       # Layer occupancy (ticks)
system.tol2bus.respLayer13.utilization            1.9                       # Layer utilization (%)
system.tol2bus.respLayer14.occupancy          1617202                       # Layer occupancy (ticks)
system.tol2bus.respLayer14.utilization            0.0                       # Layer utilization (%)
system.tol2bus.respLayer15.occupancy        185670524                       # Layer occupancy (ticks)
system.tol2bus.respLayer15.utilization            1.8                       # Layer utilization (%)
system.tol2bus.respLayer16.occupancy          1410510                       # Layer occupancy (ticks)
system.tol2bus.respLayer16.utilization            0.0                       # Layer utilization (%)
system.tol2bus.respLayer17.occupancy        220435685                       # Layer occupancy (ticks)
system.tol2bus.respLayer17.utilization            2.2                       # Layer utilization (%)
system.tol2bus.respLayer18.occupancy          1601152                       # Layer occupancy (ticks)
system.tol2bus.respLayer18.utilization            0.0                       # Layer utilization (%)
system.tol2bus.respLayer19.occupancy        184980917                       # Layer occupancy (ticks)
system.tol2bus.respLayer19.utilization            1.8                       # Layer utilization (%)
system.tol2bus.respLayer20.occupancy          1417422                       # Layer occupancy (ticks)
system.tol2bus.respLayer20.utilization            0.0                       # Layer utilization (%)
system.tol2bus.respLayer21.occupancy        190986392                       # Layer occupancy (ticks)
system.tol2bus.respLayer21.utilization            1.9                       # Layer utilization (%)
system.tol2bus.respLayer22.occupancy          1608791                       # Layer occupancy (ticks)
system.tol2bus.respLayer22.utilization            0.0                       # Layer utilization (%)
system.tol2bus.respLayer23.occupancy        184377555                       # Layer occupancy (ticks)
system.tol2bus.respLayer23.utilization            1.8                       # Layer utilization (%)
system.tol2bus.respLayer24.occupancy          1741653                       # Layer occupancy (ticks)
system.tol2bus.respLayer24.utilization            0.0                       # Layer utilization (%)
system.tol2bus.respLayer25.occupancy        205636918                       # Layer occupancy (ticks)
system.tol2bus.respLayer25.utilization            2.0                       # Layer utilization (%)
system.tol2bus.respLayer26.occupancy          1410263                       # Layer occupancy (ticks)
system.tol2bus.respLayer26.utilization            0.0                       # Layer utilization (%)
system.tol2bus.respLayer27.occupancy        184401615                       # Layer occupancy (ticks)
system.tol2bus.respLayer27.utilization            1.8                       # Layer utilization (%)
system.tol2bus.respLayer28.occupancy          1628562                       # Layer occupancy (ticks)
system.tol2bus.respLayer28.utilization            0.0                       # Layer utilization (%)
system.tol2bus.respLayer29.occupancy        194174519                       # Layer occupancy (ticks)
system.tol2bus.respLayer29.utilization            1.9                       # Layer utilization (%)
system.tol2bus.respLayer30.occupancy          1612569                       # Layer occupancy (ticks)
system.tol2bus.respLayer30.utilization            0.0                       # Layer utilization (%)
system.tol2bus.respLayer31.occupancy        191696563                       # Layer occupancy (ticks)
system.tol2bus.respLayer31.utilization            1.9                       # Layer utilization (%)

---------- End Simulation Statistics   ----------
