
---------- Begin Simulation Statistics ----------
sim_seconds                                  0.001242                       # Number of seconds simulated
sim_ticks                                  1242349485                       # Number of ticks simulated
final_tick                                 1242349485                       # Number of ticks from beginning of simulation (restored from checkpoints and never reset)
sim_freq                                 1000000000000                       # Frequency of simulated ticks
host_inst_rate                                 231398                       # Simulator instruction rate (inst/s)
host_op_rate                                   231398                       # Simulator op (including micro ops) rate (op/s)
host_tick_rate                              136582178                       # Simulator tick rate (ticks/s)
host_mem_usage                                 697288                       # Number of bytes of host memory used
host_seconds                                     9.10                       # Real time elapsed on the host
sim_insts                                     2104790                       # Number of instructions simulated
sim_ops                                       2104790                       # Number of ops (including micro ops) simulated
system.voltage_domain.voltage                       1                       # Voltage in Volts
system.clk_domain.clock                          1000                       # Clock period in ticks
system.mem_ctrls.bytes_read::cpu00.inst        118976                       # Number of bytes read from this memory
system.mem_ctrls.bytes_read::cpu00.data        376384                       # Number of bytes read from this memory
system.mem_ctrls.bytes_read::cpu01.inst         12160                       # Number of bytes read from this memory
system.mem_ctrls.bytes_read::cpu01.data          5504                       # Number of bytes read from this memory
system.mem_ctrls.bytes_read::cpu02.inst          1408                       # Number of bytes read from this memory
system.mem_ctrls.bytes_read::cpu02.data          5696                       # Number of bytes read from this memory
system.mem_ctrls.bytes_read::cpu03.inst          1408                       # Number of bytes read from this memory
system.mem_ctrls.bytes_read::cpu03.data          5568                       # Number of bytes read from this memory
system.mem_ctrls.bytes_read::cpu04.inst           576                       # Number of bytes read from this memory
system.mem_ctrls.bytes_read::cpu04.data          4416                       # Number of bytes read from this memory
system.mem_ctrls.bytes_read::cpu05.inst           640                       # Number of bytes read from this memory
system.mem_ctrls.bytes_read::cpu05.data          4480                       # Number of bytes read from this memory
system.mem_ctrls.bytes_read::cpu06.inst          1664                       # Number of bytes read from this memory
system.mem_ctrls.bytes_read::cpu06.data          5248                       # Number of bytes read from this memory
system.mem_ctrls.bytes_read::cpu07.inst           256                       # Number of bytes read from this memory
system.mem_ctrls.bytes_read::cpu07.data          4608                       # Number of bytes read from this memory
system.mem_ctrls.bytes_read::cpu08.inst           448                       # Number of bytes read from this memory
system.mem_ctrls.bytes_read::cpu08.data          5632                       # Number of bytes read from this memory
system.mem_ctrls.bytes_read::cpu09.inst           128                       # Number of bytes read from this memory
system.mem_ctrls.bytes_read::cpu09.data          5504                       # Number of bytes read from this memory
system.mem_ctrls.bytes_read::cpu10.inst          2624                       # Number of bytes read from this memory
system.mem_ctrls.bytes_read::cpu10.data          5504                       # Number of bytes read from this memory
system.mem_ctrls.bytes_read::cpu11.inst           576                       # Number of bytes read from this memory
system.mem_ctrls.bytes_read::cpu11.data          5632                       # Number of bytes read from this memory
system.mem_ctrls.bytes_read::cpu12.inst           576                       # Number of bytes read from this memory
system.mem_ctrls.bytes_read::cpu12.data          4352                       # Number of bytes read from this memory
system.mem_ctrls.bytes_read::cpu13.inst          3328                       # Number of bytes read from this memory
system.mem_ctrls.bytes_read::cpu13.data          5376                       # Number of bytes read from this memory
system.mem_ctrls.bytes_read::cpu14.inst          3008                       # Number of bytes read from this memory
system.mem_ctrls.bytes_read::cpu14.data          5952                       # Number of bytes read from this memory
system.mem_ctrls.bytes_read::cpu15.inst           640                       # Number of bytes read from this memory
system.mem_ctrls.bytes_read::cpu15.data          5504                       # Number of bytes read from this memory
system.mem_ctrls.bytes_read::total             603776                       # Number of bytes read from this memory
system.mem_ctrls.bytes_inst_read::cpu00.inst       118976                       # Number of instructions bytes read from this memory
system.mem_ctrls.bytes_inst_read::cpu01.inst        12160                       # Number of instructions bytes read from this memory
system.mem_ctrls.bytes_inst_read::cpu02.inst         1408                       # Number of instructions bytes read from this memory
system.mem_ctrls.bytes_inst_read::cpu03.inst         1408                       # Number of instructions bytes read from this memory
system.mem_ctrls.bytes_inst_read::cpu04.inst          576                       # Number of instructions bytes read from this memory
system.mem_ctrls.bytes_inst_read::cpu05.inst          640                       # Number of instructions bytes read from this memory
system.mem_ctrls.bytes_inst_read::cpu06.inst         1664                       # Number of instructions bytes read from this memory
system.mem_ctrls.bytes_inst_read::cpu07.inst          256                       # Number of instructions bytes read from this memory
system.mem_ctrls.bytes_inst_read::cpu08.inst          448                       # Number of instructions bytes read from this memory
system.mem_ctrls.bytes_inst_read::cpu09.inst          128                       # Number of instructions bytes read from this memory
system.mem_ctrls.bytes_inst_read::cpu10.inst         2624                       # Number of instructions bytes read from this memory
system.mem_ctrls.bytes_inst_read::cpu11.inst          576                       # Number of instructions bytes read from this memory
system.mem_ctrls.bytes_inst_read::cpu12.inst          576                       # Number of instructions bytes read from this memory
system.mem_ctrls.bytes_inst_read::cpu13.inst         3328                       # Number of instructions bytes read from this memory
system.mem_ctrls.bytes_inst_read::cpu14.inst         3008                       # Number of instructions bytes read from this memory
system.mem_ctrls.bytes_inst_read::cpu15.inst          640                       # Number of instructions bytes read from this memory
system.mem_ctrls.bytes_inst_read::total        148416                       # Number of instructions bytes read from this memory
system.mem_ctrls.num_reads::cpu00.inst           1859                       # Number of read requests responded to by this memory
system.mem_ctrls.num_reads::cpu00.data           5881                       # Number of read requests responded to by this memory
system.mem_ctrls.num_reads::cpu01.inst            190                       # Number of read requests responded to by this memory
system.mem_ctrls.num_reads::cpu01.data             86                       # Number of read requests responded to by this memory
system.mem_ctrls.num_reads::cpu02.inst             22                       # Number of read requests responded to by this memory
system.mem_ctrls.num_reads::cpu02.data             89                       # Number of read requests responded to by this memory
system.mem_ctrls.num_reads::cpu03.inst             22                       # Number of read requests responded to by this memory
system.mem_ctrls.num_reads::cpu03.data             87                       # Number of read requests responded to by this memory
system.mem_ctrls.num_reads::cpu04.inst              9                       # Number of read requests responded to by this memory
system.mem_ctrls.num_reads::cpu04.data             69                       # Number of read requests responded to by this memory
system.mem_ctrls.num_reads::cpu05.inst             10                       # Number of read requests responded to by this memory
system.mem_ctrls.num_reads::cpu05.data             70                       # Number of read requests responded to by this memory
system.mem_ctrls.num_reads::cpu06.inst             26                       # Number of read requests responded to by this memory
system.mem_ctrls.num_reads::cpu06.data             82                       # Number of read requests responded to by this memory
system.mem_ctrls.num_reads::cpu07.inst              4                       # Number of read requests responded to by this memory
system.mem_ctrls.num_reads::cpu07.data             72                       # Number of read requests responded to by this memory
system.mem_ctrls.num_reads::cpu08.inst              7                       # Number of read requests responded to by this memory
system.mem_ctrls.num_reads::cpu08.data             88                       # Number of read requests responded to by this memory
system.mem_ctrls.num_reads::cpu09.inst              2                       # Number of read requests responded to by this memory
system.mem_ctrls.num_reads::cpu09.data             86                       # Number of read requests responded to by this memory
system.mem_ctrls.num_reads::cpu10.inst             41                       # Number of read requests responded to by this memory
system.mem_ctrls.num_reads::cpu10.data             86                       # Number of read requests responded to by this memory
system.mem_ctrls.num_reads::cpu11.inst              9                       # Number of read requests responded to by this memory
system.mem_ctrls.num_reads::cpu11.data             88                       # Number of read requests responded to by this memory
system.mem_ctrls.num_reads::cpu12.inst              9                       # Number of read requests responded to by this memory
system.mem_ctrls.num_reads::cpu12.data             68                       # Number of read requests responded to by this memory
system.mem_ctrls.num_reads::cpu13.inst             52                       # Number of read requests responded to by this memory
system.mem_ctrls.num_reads::cpu13.data             84                       # Number of read requests responded to by this memory
system.mem_ctrls.num_reads::cpu14.inst             47                       # Number of read requests responded to by this memory
system.mem_ctrls.num_reads::cpu14.data             93                       # Number of read requests responded to by this memory
system.mem_ctrls.num_reads::cpu15.inst             10                       # Number of read requests responded to by this memory
system.mem_ctrls.num_reads::cpu15.data             86                       # Number of read requests responded to by this memory
system.mem_ctrls.num_reads::total                9434                       # Number of read requests responded to by this memory
system.mem_ctrls.bw_read::cpu00.inst         95766933                       # Total read bandwidth from this memory (bytes/s)
system.mem_ctrls.bw_read::cpu00.data        302961449                       # Total read bandwidth from this memory (bytes/s)
system.mem_ctrls.bw_read::cpu01.inst          9787906                       # Total read bandwidth from this memory (bytes/s)
system.mem_ctrls.bw_read::cpu01.data          4430315                       # Total read bandwidth from this memory (bytes/s)
system.mem_ctrls.bw_read::cpu02.inst          1133336                       # Total read bandwidth from this memory (bytes/s)
system.mem_ctrls.bw_read::cpu02.data          4584861                       # Total read bandwidth from this memory (bytes/s)
system.mem_ctrls.bw_read::cpu03.inst          1133336                       # Total read bandwidth from this memory (bytes/s)
system.mem_ctrls.bw_read::cpu03.data          4481831                       # Total read bandwidth from this memory (bytes/s)
system.mem_ctrls.bw_read::cpu04.inst           463638                       # Total read bandwidth from this memory (bytes/s)
system.mem_ctrls.bw_read::cpu04.data          3554555                       # Total read bandwidth from this memory (bytes/s)
system.mem_ctrls.bw_read::cpu05.inst           515153                       # Total read bandwidth from this memory (bytes/s)
system.mem_ctrls.bw_read::cpu05.data          3606071                       # Total read bandwidth from this memory (bytes/s)
system.mem_ctrls.bw_read::cpu06.inst          1339398                       # Total read bandwidth from this memory (bytes/s)
system.mem_ctrls.bw_read::cpu06.data          4224254                       # Total read bandwidth from this memory (bytes/s)
system.mem_ctrls.bw_read::cpu07.inst           206061                       # Total read bandwidth from this memory (bytes/s)
system.mem_ctrls.bw_read::cpu07.data          3709101                       # Total read bandwidth from this memory (bytes/s)
system.mem_ctrls.bw_read::cpu08.inst           360607                       # Total read bandwidth from this memory (bytes/s)
system.mem_ctrls.bw_read::cpu08.data          4533346                       # Total read bandwidth from this memory (bytes/s)
system.mem_ctrls.bw_read::cpu09.inst           103031                       # Total read bandwidth from this memory (bytes/s)
system.mem_ctrls.bw_read::cpu09.data          4430315                       # Total read bandwidth from this memory (bytes/s)
system.mem_ctrls.bw_read::cpu10.inst          2112127                       # Total read bandwidth from this memory (bytes/s)
system.mem_ctrls.bw_read::cpu10.data          4430315                       # Total read bandwidth from this memory (bytes/s)
system.mem_ctrls.bw_read::cpu11.inst           463638                       # Total read bandwidth from this memory (bytes/s)
system.mem_ctrls.bw_read::cpu11.data          4533346                       # Total read bandwidth from this memory (bytes/s)
system.mem_ctrls.bw_read::cpu12.inst           463638                       # Total read bandwidth from this memory (bytes/s)
system.mem_ctrls.bw_read::cpu12.data          3503040                       # Total read bandwidth from this memory (bytes/s)
system.mem_ctrls.bw_read::cpu13.inst          2678795                       # Total read bandwidth from this memory (bytes/s)
system.mem_ctrls.bw_read::cpu13.data          4327285                       # Total read bandwidth from this memory (bytes/s)
system.mem_ctrls.bw_read::cpu14.inst          2421219                       # Total read bandwidth from this memory (bytes/s)
system.mem_ctrls.bw_read::cpu14.data          4790922                       # Total read bandwidth from this memory (bytes/s)
system.mem_ctrls.bw_read::cpu15.inst           515153                       # Total read bandwidth from this memory (bytes/s)
system.mem_ctrls.bw_read::cpu15.data          4430315                       # Total read bandwidth from this memory (bytes/s)
system.mem_ctrls.bw_read::total             485995291                       # Total read bandwidth from this memory (bytes/s)
system.mem_ctrls.bw_inst_read::cpu00.inst     95766933                       # Instruction read bandwidth from this memory (bytes/s)
system.mem_ctrls.bw_inst_read::cpu01.inst      9787906                       # Instruction read bandwidth from this memory (bytes/s)
system.mem_ctrls.bw_inst_read::cpu02.inst      1133336                       # Instruction read bandwidth from this memory (bytes/s)
system.mem_ctrls.bw_inst_read::cpu03.inst      1133336                       # Instruction read bandwidth from this memory (bytes/s)
system.mem_ctrls.bw_inst_read::cpu04.inst       463638                       # Instruction read bandwidth from this memory (bytes/s)
system.mem_ctrls.bw_inst_read::cpu05.inst       515153                       # Instruction read bandwidth from this memory (bytes/s)
system.mem_ctrls.bw_inst_read::cpu06.inst      1339398                       # Instruction read bandwidth from this memory (bytes/s)
system.mem_ctrls.bw_inst_read::cpu07.inst       206061                       # Instruction read bandwidth from this memory (bytes/s)
system.mem_ctrls.bw_inst_read::cpu08.inst       360607                       # Instruction read bandwidth from this memory (bytes/s)
system.mem_ctrls.bw_inst_read::cpu09.inst       103031                       # Instruction read bandwidth from this memory (bytes/s)
system.mem_ctrls.bw_inst_read::cpu10.inst      2112127                       # Instruction read bandwidth from this memory (bytes/s)
system.mem_ctrls.bw_inst_read::cpu11.inst       463638                       # Instruction read bandwidth from this memory (bytes/s)
system.mem_ctrls.bw_inst_read::cpu12.inst       463638                       # Instruction read bandwidth from this memory (bytes/s)
system.mem_ctrls.bw_inst_read::cpu13.inst      2678795                       # Instruction read bandwidth from this memory (bytes/s)
system.mem_ctrls.bw_inst_read::cpu14.inst      2421219                       # Instruction read bandwidth from this memory (bytes/s)
system.mem_ctrls.bw_inst_read::cpu15.inst       515153                       # Instruction read bandwidth from this memory (bytes/s)
system.mem_ctrls.bw_inst_read::total        119463969                       # Instruction read bandwidth from this memory (bytes/s)
system.mem_ctrls.bw_total::cpu00.inst        95766933                       # Total bandwidth to/from this memory (bytes/s)
system.mem_ctrls.bw_total::cpu00.data       302961449                       # Total bandwidth to/from this memory (bytes/s)
system.mem_ctrls.bw_total::cpu01.inst         9787906                       # Total bandwidth to/from this memory (bytes/s)
system.mem_ctrls.bw_total::cpu01.data         4430315                       # Total bandwidth to/from this memory (bytes/s)
system.mem_ctrls.bw_total::cpu02.inst         1133336                       # Total bandwidth to/from this memory (bytes/s)
system.mem_ctrls.bw_total::cpu02.data         4584861                       # Total bandwidth to/from this memory (bytes/s)
system.mem_ctrls.bw_total::cpu03.inst         1133336                       # Total bandwidth to/from this memory (bytes/s)
system.mem_ctrls.bw_total::cpu03.data         4481831                       # Total bandwidth to/from this memory (bytes/s)
system.mem_ctrls.bw_total::cpu04.inst          463638                       # Total bandwidth to/from this memory (bytes/s)
system.mem_ctrls.bw_total::cpu04.data         3554555                       # Total bandwidth to/from this memory (bytes/s)
system.mem_ctrls.bw_total::cpu05.inst          515153                       # Total bandwidth to/from this memory (bytes/s)
system.mem_ctrls.bw_total::cpu05.data         3606071                       # Total bandwidth to/from this memory (bytes/s)
system.mem_ctrls.bw_total::cpu06.inst         1339398                       # Total bandwidth to/from this memory (bytes/s)
system.mem_ctrls.bw_total::cpu06.data         4224254                       # Total bandwidth to/from this memory (bytes/s)
system.mem_ctrls.bw_total::cpu07.inst          206061                       # Total bandwidth to/from this memory (bytes/s)
system.mem_ctrls.bw_total::cpu07.data         3709101                       # Total bandwidth to/from this memory (bytes/s)
system.mem_ctrls.bw_total::cpu08.inst          360607                       # Total bandwidth to/from this memory (bytes/s)
system.mem_ctrls.bw_total::cpu08.data         4533346                       # Total bandwidth to/from this memory (bytes/s)
system.mem_ctrls.bw_total::cpu09.inst          103031                       # Total bandwidth to/from this memory (bytes/s)
system.mem_ctrls.bw_total::cpu09.data         4430315                       # Total bandwidth to/from this memory (bytes/s)
system.mem_ctrls.bw_total::cpu10.inst         2112127                       # Total bandwidth to/from this memory (bytes/s)
system.mem_ctrls.bw_total::cpu10.data         4430315                       # Total bandwidth to/from this memory (bytes/s)
system.mem_ctrls.bw_total::cpu11.inst          463638                       # Total bandwidth to/from this memory (bytes/s)
system.mem_ctrls.bw_total::cpu11.data         4533346                       # Total bandwidth to/from this memory (bytes/s)
system.mem_ctrls.bw_total::cpu12.inst          463638                       # Total bandwidth to/from this memory (bytes/s)
system.mem_ctrls.bw_total::cpu12.data         3503040                       # Total bandwidth to/from this memory (bytes/s)
system.mem_ctrls.bw_total::cpu13.inst         2678795                       # Total bandwidth to/from this memory (bytes/s)
system.mem_ctrls.bw_total::cpu13.data         4327285                       # Total bandwidth to/from this memory (bytes/s)
system.mem_ctrls.bw_total::cpu14.inst         2421219                       # Total bandwidth to/from this memory (bytes/s)
system.mem_ctrls.bw_total::cpu14.data         4790922                       # Total bandwidth to/from this memory (bytes/s)
system.mem_ctrls.bw_total::cpu15.inst          515153                       # Total bandwidth to/from this memory (bytes/s)
system.mem_ctrls.bw_total::cpu15.data         4430315                       # Total bandwidth to/from this memory (bytes/s)
system.mem_ctrls.bw_total::total            485995291                       # Total bandwidth to/from this memory (bytes/s)
system.cpu00.branchPred.lookups                132548                       # Number of BP lookups
system.cpu00.branchPred.condPredicted           73807                       # Number of conditional branches predicted
system.cpu00.branchPred.condIncorrect            5673                       # Number of conditional branches incorrect
system.cpu00.branchPred.BTBLookups              87941                       # Number of BTB lookups
system.cpu00.branchPred.BTBHits                 66430                       # Number of BTB hits
system.cpu00.branchPred.BTBCorrect                  0                       # Number of correct BTB predictions (this stat may not work properly.
system.cpu00.branchPred.BTBHitPct           75.539282                       # BTB Hit Percentage
system.cpu00.branchPred.usedRAS                 26437                       # Number of times the RAS was used to get a target.
system.cpu00.branchPred.RASInCorrect               89                       # Number of incorrect RAS predictions.
system.cpu00.branchPred.indirectLookups          3668                       # Number of indirect predictor lookups.
system.cpu00.branchPred.indirectHits             2895                       # Number of indirect target hits.
system.cpu00.branchPred.indirectMisses            773                       # Number of indirect misses.
system.cpu00.branchPredindirectMispredicted          257                       # Number of mispredicted indirect branches.
system.cpu_voltage_domain.voltage                   1                       # Voltage in Volts
system.cpu_clk_domain.clock                      1159                       # Clock period in ticks
system.cpu00.dtb.fetch_hits                         0                       # ITB hits
system.cpu00.dtb.fetch_misses                       0                       # ITB misses
system.cpu00.dtb.fetch_acv                          0                       # ITB acv
system.cpu00.dtb.fetch_accesses                     0                       # ITB accesses
system.cpu00.dtb.read_hits                     182066                       # DTB read hits
system.cpu00.dtb.read_misses                      611                       # DTB read misses
system.cpu00.dtb.read_acv                           0                       # DTB read access violations
system.cpu00.dtb.read_accesses                 182677                       # DTB read accesses
system.cpu00.dtb.write_hits                    127872                       # DTB write hits
system.cpu00.dtb.write_misses                    1005                       # DTB write misses
system.cpu00.dtb.write_acv                          0                       # DTB write access violations
system.cpu00.dtb.write_accesses                128877                       # DTB write accesses
system.cpu00.dtb.data_hits                     309938                       # DTB hits
system.cpu00.dtb.data_misses                     1616                       # DTB misses
system.cpu00.dtb.data_acv                           0                       # DTB access violations
system.cpu00.dtb.data_accesses                 311554                       # DTB accesses
system.cpu00.itb.fetch_hits                    149174                       # ITB hits
system.cpu00.itb.fetch_misses                     160                       # ITB misses
system.cpu00.itb.fetch_acv                          0                       # ITB acv
system.cpu00.itb.fetch_accesses                149334                       # ITB accesses
system.cpu00.itb.read_hits                          0                       # DTB read hits
system.cpu00.itb.read_misses                        0                       # DTB read misses
system.cpu00.itb.read_acv                           0                       # DTB read access violations
system.cpu00.itb.read_accesses                      0                       # DTB read accesses
system.cpu00.itb.write_hits                         0                       # DTB write hits
system.cpu00.itb.write_misses                       0                       # DTB write misses
system.cpu00.itb.write_acv                          0                       # DTB write access violations
system.cpu00.itb.write_accesses                     0                       # DTB write accesses
system.cpu00.itb.data_hits                          0                       # DTB hits
system.cpu00.itb.data_misses                        0                       # DTB misses
system.cpu00.itb.data_acv                           0                       # DTB access violations
system.cpu00.itb.data_accesses                      0                       # DTB accesses
system.cpu00.workload.num_syscalls               1963                       # Number of system calls
system.cpu00.numCycles                        1010527                       # number of cpu cycles simulated
system.cpu00.numWorkItemsStarted                    0                       # number of work items this cpu started
system.cpu00.numWorkItemsCompleted                  0                       # number of work items this cpu completed
system.cpu00.fetch.icacheStallCycles            76540                       # Number of cycles fetch is stalled on an Icache miss
system.cpu00.fetch.Insts                      1190018                       # Number of instructions fetch has processed
system.cpu00.fetch.Branches                    132548                       # Number of branches that fetch encountered
system.cpu00.fetch.predictedBranches            95762                       # Number of branches that fetch has predicted taken
system.cpu00.fetch.Cycles                      723323                       # Number of cycles fetch has run and was not squashing or blocked
system.cpu00.fetch.SquashCycles                 12724                       # Number of cycles fetch has spent squashing
system.cpu00.fetch.MiscStallCycles                727                       # Number of cycles fetch has spent waiting on interrupts, or bad addresses, or out of MSHRs
system.cpu00.fetch.PendingTrapStallCycles         6128                       # Number of stall cycles due to pending traps
system.cpu00.fetch.IcacheWaitRetryStallCycles          738                       # Number of stall cycles due to full MSHR
system.cpu00.fetch.CacheLines                  149174                       # Number of cache lines fetched
system.cpu00.fetch.IcacheSquashes                2597                       # Number of outstanding Icache misses that were squashed
system.cpu00.fetch.rateDist::samples           813818                       # Number of instructions fetched each cycle (Total)
system.cpu00.fetch.rateDist::mean            1.462266                       # Number of instructions fetched each cycle (Total)
system.cpu00.fetch.rateDist::stdev           2.726292                       # Number of instructions fetched each cycle (Total)
system.cpu00.fetch.rateDist::underflows             0      0.00%      0.00% # Number of instructions fetched each cycle (Total)
system.cpu00.fetch.rateDist::0                 595906     73.22%     73.22% # Number of instructions fetched each cycle (Total)
system.cpu00.fetch.rateDist::1                  16292      2.00%     75.23% # Number of instructions fetched each cycle (Total)
system.cpu00.fetch.rateDist::2                  17590      2.16%     77.39% # Number of instructions fetched each cycle (Total)
system.cpu00.fetch.rateDist::3                  17035      2.09%     79.48% # Number of instructions fetched each cycle (Total)
system.cpu00.fetch.rateDist::4                  38099      4.68%     84.16% # Number of instructions fetched each cycle (Total)
system.cpu00.fetch.rateDist::5                  15689      1.93%     86.09% # Number of instructions fetched each cycle (Total)
system.cpu00.fetch.rateDist::6                  18886      2.32%     88.41% # Number of instructions fetched each cycle (Total)
system.cpu00.fetch.rateDist::7                  11284      1.39%     89.80% # Number of instructions fetched each cycle (Total)
system.cpu00.fetch.rateDist::8                  83037     10.20%    100.00% # Number of instructions fetched each cycle (Total)
system.cpu00.fetch.rateDist::overflows              0      0.00%    100.00% # Number of instructions fetched each cycle (Total)
system.cpu00.fetch.rateDist::min_value              0                       # Number of instructions fetched each cycle (Total)
system.cpu00.fetch.rateDist::max_value              8                       # Number of instructions fetched each cycle (Total)
system.cpu00.fetch.rateDist::total             813818                       # Number of instructions fetched each cycle (Total)
system.cpu00.fetch.branchRate                0.131167                       # Number of branch fetches per cycle
system.cpu00.fetch.rate                      1.177621                       # Number of inst fetches per cycle
system.cpu00.decode.IdleCycles                  85493                       # Number of cycles decode is idle
system.cpu00.decode.BlockedCycles              561259                       # Number of cycles decode is blocked
system.cpu00.decode.RunCycles                  129047                       # Number of cycles decode is running
system.cpu00.decode.UnblockCycles               33397                       # Number of cycles decode is unblocking
system.cpu00.decode.SquashCycles                 4622                       # Number of cycles decode is squashing
system.cpu00.decode.BranchResolved              26454                       # Number of times decode resolved a branch
system.cpu00.decode.BranchMispred                1790                       # Number of times decode detected a branch misprediction
system.cpu00.decode.DecodedInsts              1124543                       # Number of instructions handled by decode
system.cpu00.decode.SquashedInsts                7280                       # Number of squashed instructions handled by decode
system.cpu00.rename.SquashCycles                 4622                       # Number of cycles rename is squashing
system.cpu00.rename.IdleCycles                 101403                       # Number of cycles rename is idle
system.cpu00.rename.BlockCycles                 90127                       # Number of cycles rename is blocking
system.cpu00.rename.serializeStallCycles       218384                       # count of cycles rename stalled for serializing inst
system.cpu00.rename.RunCycles                  146653                       # Number of cycles rename is running
system.cpu00.rename.UnblockCycles              252629                       # Number of cycles rename is unblocking
system.cpu00.rename.RenamedInsts              1105285                       # Number of instructions processed by rename
system.cpu00.rename.ROBFullEvents                2975                       # Number of times rename has blocked due to ROB full
system.cpu00.rename.IQFullEvents                22630                       # Number of times rename has blocked due to IQ full
system.cpu00.rename.LQFullEvents                 1847                       # Number of times rename has blocked due to LQ full
system.cpu00.rename.SQFullEvents               217643                       # Number of times rename has blocked due to SQ full
system.cpu00.rename.RenamedOperands            757731                       # Number of destination operands rename has renamed
system.cpu00.rename.RenameLookups             1369162                       # Number of register rename lookups that rename has made
system.cpu00.rename.int_rename_lookups        1211025                       # Number of integer rename lookups
system.cpu00.rename.fp_rename_lookups          155850                       # Number of floating rename lookups
system.cpu00.rename.CommittedMaps              668722                       # Number of HB maps that are committed
system.cpu00.rename.UndoneMaps                  89009                       # Number of HB maps that are undone due to squashing
system.cpu00.rename.serializingInsts             4039                       # count of serializing insts renamed
system.cpu00.rename.tempSerializingInsts         1663                       # count of temporary serializing insts renamed
system.cpu00.rename.skidInsts                  149668                       # count of insts added to the skid buffer
system.cpu00.memDep0.insertedLoads             179547                       # Number of loads inserted to the mem dependence unit.
system.cpu00.memDep0.insertedStores            135452                       # Number of stores inserted to the mem dependence unit.
system.cpu00.memDep0.conflictingLoads           32041                       # Number of conflicting loads.
system.cpu00.memDep0.conflictingStores          12291                       # Number of conflicting stores.
system.cpu00.iq.iqInstsAdded                   968549                       # Number of instructions added to the IQ (excludes non-spec)
system.cpu00.iq.iqNonSpecInstsAdded              2752                       # Number of non-speculative instructions added to the IQ
system.cpu00.iq.iqInstsIssued                  952810                       # Number of instructions issued
system.cpu00.iq.iqSquashedInstsIssued            1720                       # Number of squashed instructions issued
system.cpu00.iq.iqSquashedInstsExamined        101570                       # Number of squashed instructions iterated over during squash; mainly for profiling
system.cpu00.iq.iqSquashedOperandsExamined        51728                       # Number of squashed operands that are examined and possibly removed from graph
system.cpu00.iq.iqSquashedNonSpecRemoved          385                       # Number of squashed non-spec instructions that were removed
system.cpu00.iq.issued_per_cycle::samples       813818                       # Number of insts issued each cycle
system.cpu00.iq.issued_per_cycle::mean       1.170790                       # Number of insts issued each cycle
system.cpu00.iq.issued_per_cycle::stdev      1.937201                       # Number of insts issued each cycle
system.cpu00.iq.issued_per_cycle::underflows            0      0.00%      0.00% # Number of insts issued each cycle
system.cpu00.iq.issued_per_cycle::0            515659     63.36%     63.36% # Number of insts issued each cycle
system.cpu00.iq.issued_per_cycle::1             73676      9.05%     72.42% # Number of insts issued each cycle
system.cpu00.iq.issued_per_cycle::2             60896      7.48%     79.90% # Number of insts issued each cycle
system.cpu00.iq.issued_per_cycle::3             45200      5.55%     85.45% # Number of insts issued each cycle
system.cpu00.iq.issued_per_cycle::4             43686      5.37%     90.82% # Number of insts issued each cycle
system.cpu00.iq.issued_per_cycle::5             28587      3.51%     94.33% # Number of insts issued each cycle
system.cpu00.iq.issued_per_cycle::6             26659      3.28%     97.61% # Number of insts issued each cycle
system.cpu00.iq.issued_per_cycle::7             11531      1.42%     99.03% # Number of insts issued each cycle
system.cpu00.iq.issued_per_cycle::8              7924      0.97%    100.00% # Number of insts issued each cycle
system.cpu00.iq.issued_per_cycle::overflows            0      0.00%    100.00% # Number of insts issued each cycle
system.cpu00.iq.issued_per_cycle::min_value            0                       # Number of insts issued each cycle
system.cpu00.iq.issued_per_cycle::max_value            8                       # Number of insts issued each cycle
system.cpu00.iq.issued_per_cycle::total        813818                       # Number of insts issued each cycle
system.cpu00.iq.fu_full::No_OpClass                 0      0.00%      0.00% # attempts to use FU when none available
system.cpu00.iq.fu_full::IntAlu                  5003     16.00%     16.00% # attempts to use FU when none available
system.cpu00.iq.fu_full::IntMult                 4097     13.11%     29.11% # attempts to use FU when none available
system.cpu00.iq.fu_full::IntDiv                     0      0.00%     29.11% # attempts to use FU when none available
system.cpu00.iq.fu_full::FloatAdd                  72      0.23%     29.34% # attempts to use FU when none available
system.cpu00.iq.fu_full::FloatCmp                   0      0.00%     29.34% # attempts to use FU when none available
system.cpu00.iq.fu_full::FloatCvt                   0      0.00%     29.34% # attempts to use FU when none available
system.cpu00.iq.fu_full::FloatMult               5948     19.03%     48.37% # attempts to use FU when none available
system.cpu00.iq.fu_full::FloatDiv                   0      0.00%     48.37% # attempts to use FU when none available
system.cpu00.iq.fu_full::FloatSqrt                  0      0.00%     48.37% # attempts to use FU when none available
system.cpu00.iq.fu_full::SimdAdd                    0      0.00%     48.37% # attempts to use FU when none available
system.cpu00.iq.fu_full::SimdAddAcc                 0      0.00%     48.37% # attempts to use FU when none available
system.cpu00.iq.fu_full::SimdAlu                    0      0.00%     48.37% # attempts to use FU when none available
system.cpu00.iq.fu_full::SimdCmp                    0      0.00%     48.37% # attempts to use FU when none available
system.cpu00.iq.fu_full::SimdCvt                    0      0.00%     48.37% # attempts to use FU when none available
system.cpu00.iq.fu_full::SimdMisc                   0      0.00%     48.37% # attempts to use FU when none available
system.cpu00.iq.fu_full::SimdMult                   0      0.00%     48.37% # attempts to use FU when none available
system.cpu00.iq.fu_full::SimdMultAcc                0      0.00%     48.37% # attempts to use FU when none available
system.cpu00.iq.fu_full::SimdShift                  0      0.00%     48.37% # attempts to use FU when none available
system.cpu00.iq.fu_full::SimdShiftAcc               0      0.00%     48.37% # attempts to use FU when none available
system.cpu00.iq.fu_full::SimdSqrt                   0      0.00%     48.37% # attempts to use FU when none available
system.cpu00.iq.fu_full::SimdFloatAdd               0      0.00%     48.37% # attempts to use FU when none available
system.cpu00.iq.fu_full::SimdFloatAlu               0      0.00%     48.37% # attempts to use FU when none available
system.cpu00.iq.fu_full::SimdFloatCmp               0      0.00%     48.37% # attempts to use FU when none available
system.cpu00.iq.fu_full::SimdFloatCvt               0      0.00%     48.37% # attempts to use FU when none available
system.cpu00.iq.fu_full::SimdFloatDiv               0      0.00%     48.37% # attempts to use FU when none available
system.cpu00.iq.fu_full::SimdFloatMisc              0      0.00%     48.37% # attempts to use FU when none available
system.cpu00.iq.fu_full::SimdFloatMult              0      0.00%     48.37% # attempts to use FU when none available
system.cpu00.iq.fu_full::SimdFloatMultAcc            0      0.00%     48.37% # attempts to use FU when none available
system.cpu00.iq.fu_full::SimdFloatSqrt              0      0.00%     48.37% # attempts to use FU when none available
system.cpu00.iq.fu_full::MemRead                 9869     31.57%     79.93% # attempts to use FU when none available
system.cpu00.iq.fu_full::MemWrite                6273     20.07%    100.00% # attempts to use FU when none available
system.cpu00.iq.fu_full::IprAccess                  0      0.00%    100.00% # attempts to use FU when none available
system.cpu00.iq.fu_full::InstPrefetch               0      0.00%    100.00% # attempts to use FU when none available
system.cpu00.iq.FU_type_0::No_OpClass               0      0.00%      0.00% # Type of FU issued
system.cpu00.iq.FU_type_0::IntAlu              550815     57.81%     57.81% # Type of FU issued
system.cpu00.iq.FU_type_0::IntMult              12791      1.34%     59.15% # Type of FU issued
system.cpu00.iq.FU_type_0::IntDiv                   0      0.00%     59.15% # Type of FU issued
system.cpu00.iq.FU_type_0::FloatAdd             35716      3.75%     62.90% # Type of FU issued
system.cpu00.iq.FU_type_0::FloatCmp                 8      0.00%     62.90% # Type of FU issued
system.cpu00.iq.FU_type_0::FloatCvt                 0      0.00%     62.90% # Type of FU issued
system.cpu00.iq.FU_type_0::FloatMult            37107      3.89%     66.80% # Type of FU issued
system.cpu00.iq.FU_type_0::FloatDiv                17      0.00%     66.80% # Type of FU issued
system.cpu00.iq.FU_type_0::FloatSqrt                0      0.00%     66.80% # Type of FU issued
system.cpu00.iq.FU_type_0::SimdAdd                  0      0.00%     66.80% # Type of FU issued
system.cpu00.iq.FU_type_0::SimdAddAcc               0      0.00%     66.80% # Type of FU issued
system.cpu00.iq.FU_type_0::SimdAlu                  0      0.00%     66.80% # Type of FU issued
system.cpu00.iq.FU_type_0::SimdCmp                  0      0.00%     66.80% # Type of FU issued
system.cpu00.iq.FU_type_0::SimdCvt                  0      0.00%     66.80% # Type of FU issued
system.cpu00.iq.FU_type_0::SimdMisc                 0      0.00%     66.80% # Type of FU issued
system.cpu00.iq.FU_type_0::SimdMult                 0      0.00%     66.80% # Type of FU issued
system.cpu00.iq.FU_type_0::SimdMultAcc              0      0.00%     66.80% # Type of FU issued
system.cpu00.iq.FU_type_0::SimdShift                0      0.00%     66.80% # Type of FU issued
system.cpu00.iq.FU_type_0::SimdShiftAcc             0      0.00%     66.80% # Type of FU issued
system.cpu00.iq.FU_type_0::SimdSqrt                 0      0.00%     66.80% # Type of FU issued
system.cpu00.iq.FU_type_0::SimdFloatAdd             0      0.00%     66.80% # Type of FU issued
system.cpu00.iq.FU_type_0::SimdFloatAlu             0      0.00%     66.80% # Type of FU issued
system.cpu00.iq.FU_type_0::SimdFloatCmp             0      0.00%     66.80% # Type of FU issued
system.cpu00.iq.FU_type_0::SimdFloatCvt             0      0.00%     66.80% # Type of FU issued
system.cpu00.iq.FU_type_0::SimdFloatDiv             0      0.00%     66.80% # Type of FU issued
system.cpu00.iq.FU_type_0::SimdFloatMisc            0      0.00%     66.80% # Type of FU issued
system.cpu00.iq.FU_type_0::SimdFloatMult            0      0.00%     66.80% # Type of FU issued
system.cpu00.iq.FU_type_0::SimdFloatMultAcc            0      0.00%     66.80% # Type of FU issued
system.cpu00.iq.FU_type_0::SimdFloatSqrt            0      0.00%     66.80% # Type of FU issued
system.cpu00.iq.FU_type_0::MemRead             185910     19.51%     86.31% # Type of FU issued
system.cpu00.iq.FU_type_0::MemWrite            130446     13.69%    100.00% # Type of FU issued
system.cpu00.iq.FU_type_0::IprAccess                0      0.00%    100.00% # Type of FU issued
system.cpu00.iq.FU_type_0::InstPrefetch             0      0.00%    100.00% # Type of FU issued
system.cpu00.iq.FU_type_0::total               952810                       # Type of FU issued
system.cpu00.iq.rate                         0.942884                       # Inst issue rate
system.cpu00.iq.fu_busy_cnt                     31262                       # FU busy when requested
system.cpu00.iq.fu_busy_rate                 0.032810                       # FU busy rate (busy events/executed inst)
system.cpu00.iq.int_inst_queue_reads          2508665                       # Number of integer instruction queue reads
system.cpu00.iq.int_inst_queue_writes          949909                       # Number of integer instruction queue writes
system.cpu00.iq.int_inst_queue_wakeup_accesses       813347                       # Number of integer instruction queue wakeup accesses
system.cpu00.iq.fp_inst_queue_reads            243755                       # Number of floating instruction queue reads
system.cpu00.iq.fp_inst_queue_writes           123384                       # Number of floating instruction queue writes
system.cpu00.iq.fp_inst_queue_wakeup_accesses       116991                       # Number of floating instruction queue wakeup accesses
system.cpu00.iq.int_alu_accesses               858812                       # Number of integer alu accesses
system.cpu00.iq.fp_alu_accesses                125260                       # Number of floating point alu accesses
system.cpu00.iew.lsq.thread0.forwLoads          21323                       # Number of loads that had data forwarded from stores
system.cpu00.iew.lsq.thread0.invAddrLoads            0                       # Number of loads ignored due to an invalid address
system.cpu00.iew.lsq.thread0.squashedLoads        18609                       # Number of loads squashed
system.cpu00.iew.lsq.thread0.ignoredResponses          100                       # Number of memory responses ignored because the instruction is squashed
system.cpu00.iew.lsq.thread0.memOrderViolation          432                       # Number of memory ordering violations
system.cpu00.iew.lsq.thread0.squashedStores        15938                       # Number of stores squashed
system.cpu00.iew.lsq.thread0.invAddrSwpfs            0                       # Number of software prefetches ignored due to an invalid address
system.cpu00.iew.lsq.thread0.blockedLoads            0                       # Number of blocked loads due to partial load-store forwarding
system.cpu00.iew.lsq.thread0.rescheduledLoads          219                       # Number of loads that were rescheduled
system.cpu00.iew.lsq.thread0.cacheBlocked        11249                       # Number of times an access to memory failed due to the cache being blocked
system.cpu00.iew.iewIdleCycles                      0                       # Number of cycles IEW is idle
system.cpu00.iew.iewSquashCycles                 4622                       # Number of cycles IEW is squashing
system.cpu00.iew.iewBlockCycles                 22651                       # Number of cycles IEW is blocking
system.cpu00.iew.iewUnblockCycles               57829                       # Number of cycles IEW is unblocking
system.cpu00.iew.iewDispatchedInsts           1078857                       # Number of instructions dispatched to IQ
system.cpu00.iew.iewDispSquashedInsts            1431                       # Number of squashed instructions skipped by dispatch
system.cpu00.iew.iewDispLoadInsts              179547                       # Number of dispatched load instructions
system.cpu00.iew.iewDispStoreInsts             135452                       # Number of dispatched store instructions
system.cpu00.iew.iewDispNonSpecInsts             1580                       # Number of dispatched non-speculative instructions
system.cpu00.iew.iewIQFullEvents                  120                       # Number of times the IQ has become full, causing a stall
system.cpu00.iew.iewLSQFullEvents               57595                       # Number of times the LSQ has become full, causing a stall
system.cpu00.iew.memOrderViolationEvents          432                       # Number of memory order violations
system.cpu00.iew.predictedTakenIncorrect         1559                       # Number of branches that were predicted taken incorrectly
system.cpu00.iew.predictedNotTakenIncorrect         3103                       # Number of branches that were predicted not taken incorrectly
system.cpu00.iew.branchMispredicts               4662                       # Number of branch mispredicts detected at execute
system.cpu00.iew.iewExecutedInsts              945237                       # Number of executed instructions
system.cpu00.iew.iewExecLoadInsts              182697                       # Number of load instructions executed
system.cpu00.iew.iewExecSquashedInsts            7573                       # Number of squashed instructions skipped in execute
system.cpu00.iew.exec_swp                           0                       # number of swp insts executed
system.cpu00.iew.exec_nop                      107556                       # number of nop insts executed
system.cpu00.iew.exec_refs                     311582                       # number of memory reference insts executed
system.cpu00.iew.exec_branches                 110260                       # Number of branches executed
system.cpu00.iew.exec_stores                   128885                       # Number of stores executed
system.cpu00.iew.exec_rate                   0.935390                       # Inst execution rate
system.cpu00.iew.wb_sent                       933825                       # cumulative count of insts sent to commit
system.cpu00.iew.wb_count                      930338                       # cumulative count of insts written-back
system.cpu00.iew.wb_producers                  545552                       # num instructions producing a value
system.cpu00.iew.wb_consumers                  777705                       # num instructions consuming a value
system.cpu00.iew.wb_rate                     0.920646                       # insts written-back per cycle
system.cpu00.iew.wb_fanout                   0.701490                       # average fanout of values written-back
system.cpu00.commit.commitSquashedInsts        105924                       # The number of squashed insts skipped by commit
system.cpu00.commit.commitNonSpecStalls          2367                       # The number of times commit has been forced to stall to communicate backwards
system.cpu00.commit.branchMispredicts            3933                       # The number of times a branch was mispredicted
system.cpu00.commit.committed_per_cycle::samples       797174                       # Number of insts commited each cycle
system.cpu00.commit.committed_per_cycle::mean     1.214696                       # Number of insts commited each cycle
system.cpu00.commit.committed_per_cycle::stdev     2.310924                       # Number of insts commited each cycle
system.cpu00.commit.committed_per_cycle::underflows            0      0.00%      0.00% # Number of insts commited each cycle
system.cpu00.commit.committed_per_cycle::0       549114     68.88%     68.88% # Number of insts commited each cycle
system.cpu00.commit.committed_per_cycle::1        51620      6.48%     75.36% # Number of insts commited each cycle
system.cpu00.commit.committed_per_cycle::2        50925      6.39%     81.75% # Number of insts commited each cycle
system.cpu00.commit.committed_per_cycle::3        29944      3.76%     85.50% # Number of insts commited each cycle
system.cpu00.commit.committed_per_cycle::4        35508      4.45%     89.96% # Number of insts commited each cycle
system.cpu00.commit.committed_per_cycle::5         8925      1.12%     91.08% # Number of insts commited each cycle
system.cpu00.commit.committed_per_cycle::6        12800      1.61%     92.68% # Number of insts commited each cycle
system.cpu00.commit.committed_per_cycle::7         5139      0.64%     93.33% # Number of insts commited each cycle
system.cpu00.commit.committed_per_cycle::8        53199      6.67%    100.00% # Number of insts commited each cycle
system.cpu00.commit.committed_per_cycle::overflows            0      0.00%    100.00% # Number of insts commited each cycle
system.cpu00.commit.committed_per_cycle::min_value            0                       # Number of insts commited each cycle
system.cpu00.commit.committed_per_cycle::max_value            8                       # Number of insts commited each cycle
system.cpu00.commit.committed_per_cycle::total       797174                       # Number of insts commited each cycle
system.cpu00.commit.committedInsts             968324                       # Number of instructions committed
system.cpu00.commit.committedOps               968324                       # Number of ops (including micro ops) committed
system.cpu00.commit.swp_count                       0                       # Number of s/w prefetches committed
system.cpu00.commit.refs                       280452                       # Number of memory references committed
system.cpu00.commit.loads                      160938                       # Number of loads committed
system.cpu00.commit.membars                      1032                       # Number of memory barriers committed
system.cpu00.commit.branches                   100071                       # Number of branches committed
system.cpu00.commit.fp_insts                   116058                       # Number of committed floating point instructions.
system.cpu00.commit.int_insts                  791864                       # Number of committed integer instructions.
system.cpu00.commit.function_calls              22213                       # Number of function calls committed.
system.cpu00.commit.op_class_0::No_OpClass        98594     10.18%     10.18% # Class of committed instruction
system.cpu00.commit.op_class_0::IntAlu         503119     51.96%     62.14% # Class of committed instruction
system.cpu00.commit.op_class_0::IntMult         12689      1.31%     63.45% # Class of committed instruction
system.cpu00.commit.op_class_0::IntDiv              0      0.00%     63.45% # Class of committed instruction
system.cpu00.commit.op_class_0::FloatAdd        35480      3.66%     67.11% # Class of committed instruction
system.cpu00.commit.op_class_0::FloatCmp            8      0.00%     67.11% # Class of committed instruction
system.cpu00.commit.op_class_0::FloatCvt            0      0.00%     67.11% # Class of committed instruction
system.cpu00.commit.op_class_0::FloatMult        36935      3.81%     70.93% # Class of committed instruction
system.cpu00.commit.op_class_0::FloatDiv           14      0.00%     70.93% # Class of committed instruction
system.cpu00.commit.op_class_0::FloatSqrt            0      0.00%     70.93% # Class of committed instruction
system.cpu00.commit.op_class_0::SimdAdd             0      0.00%     70.93% # Class of committed instruction
system.cpu00.commit.op_class_0::SimdAddAcc            0      0.00%     70.93% # Class of committed instruction
system.cpu00.commit.op_class_0::SimdAlu             0      0.00%     70.93% # Class of committed instruction
system.cpu00.commit.op_class_0::SimdCmp             0      0.00%     70.93% # Class of committed instruction
system.cpu00.commit.op_class_0::SimdCvt             0      0.00%     70.93% # Class of committed instruction
system.cpu00.commit.op_class_0::SimdMisc            0      0.00%     70.93% # Class of committed instruction
system.cpu00.commit.op_class_0::SimdMult            0      0.00%     70.93% # Class of committed instruction
system.cpu00.commit.op_class_0::SimdMultAcc            0      0.00%     70.93% # Class of committed instruction
system.cpu00.commit.op_class_0::SimdShift            0      0.00%     70.93% # Class of committed instruction
system.cpu00.commit.op_class_0::SimdShiftAcc            0      0.00%     70.93% # Class of committed instruction
system.cpu00.commit.op_class_0::SimdSqrt            0      0.00%     70.93% # Class of committed instruction
system.cpu00.commit.op_class_0::SimdFloatAdd            0      0.00%     70.93% # Class of committed instruction
system.cpu00.commit.op_class_0::SimdFloatAlu            0      0.00%     70.93% # Class of committed instruction
system.cpu00.commit.op_class_0::SimdFloatCmp            0      0.00%     70.93% # Class of committed instruction
system.cpu00.commit.op_class_0::SimdFloatCvt            0      0.00%     70.93% # Class of committed instruction
system.cpu00.commit.op_class_0::SimdFloatDiv            0      0.00%     70.93% # Class of committed instruction
system.cpu00.commit.op_class_0::SimdFloatMisc            0      0.00%     70.93% # Class of committed instruction
system.cpu00.commit.op_class_0::SimdFloatMult            0      0.00%     70.93% # Class of committed instruction
system.cpu00.commit.op_class_0::SimdFloatMultAcc            0      0.00%     70.93% # Class of committed instruction
system.cpu00.commit.op_class_0::SimdFloatSqrt            0      0.00%     70.93% # Class of committed instruction
system.cpu00.commit.op_class_0::MemRead        161970     16.73%     87.66% # Class of committed instruction
system.cpu00.commit.op_class_0::MemWrite       119515     12.34%    100.00% # Class of committed instruction
system.cpu00.commit.op_class_0::IprAccess            0      0.00%    100.00% # Class of committed instruction
system.cpu00.commit.op_class_0::InstPrefetch            0      0.00%    100.00% # Class of committed instruction
system.cpu00.commit.op_class_0::total          968324                       # Class of committed instruction
system.cpu00.commit.bw_lim_events               53199                       # number cycles where commit BW limit reached
system.cpu00.rob.rob_reads                    1814232                       # The number of ROB reads
system.cpu00.rob.rob_writes                   2165293                       # The number of ROB writes
system.cpu00.timesIdled                          1398                       # Number of times that the entire CPU went into an idle state and unscheduled itself
system.cpu00.idleCycles                        196709                       # Total number of cycles that the CPU has spent unscheduled due to idling
system.cpu00.quiesceCycles                      61389                       # Total number of cycles that CPU has spent quiesced or waiting for an interrupt
system.cpu00.committedInsts                    869730                       # Number of Instructions Simulated
system.cpu00.committedOps                      869730                       # Number of Ops (including micro ops) Simulated
system.cpu00.cpi                             1.161886                       # CPI: Cycles Per Instruction
system.cpu00.cpi_total                       1.161886                       # CPI: Total CPI of All Threads
system.cpu00.ipc                             0.860670                       # IPC: Instructions Per Cycle
system.cpu00.ipc_total                       0.860670                       # IPC: Total IPC of All Threads
system.cpu00.int_regfile_reads                1141545                       # number of integer regfile reads
system.cpu00.int_regfile_writes                612451                       # number of integer regfile writes
system.cpu00.fp_regfile_reads                  151828                       # number of floating regfile reads
system.cpu00.fp_regfile_writes                 102903                       # number of floating regfile writes
system.cpu00.misc_regfile_reads                  4724                       # number of misc regfile reads
system.cpu00.misc_regfile_writes                 2247                       # number of misc regfile writes
system.cpu00.dcache.tags.replacements           14928                       # number of replacements
system.cpu00.dcache.tags.tagsinuse          63.062169                       # Cycle average of tags in use
system.cpu00.dcache.tags.total_refs            224070                       # Total number of references to valid blocks.
system.cpu00.dcache.tags.sampled_refs           14992                       # Sample count of references to valid blocks.
system.cpu00.dcache.tags.avg_refs           14.945971                       # Average number of references to valid blocks.
system.cpu00.dcache.tags.warmup_cycle        26316254                       # Cycle when the warmup percentage was hit.
system.cpu00.dcache.tags.occ_blocks::cpu00.data    63.062169                       # Average occupied blocks per requestor
system.cpu00.dcache.tags.occ_percent::cpu00.data     0.985346                       # Average percentage of cache occupancy
system.cpu00.dcache.tags.occ_percent::total     0.985346                       # Average percentage of cache occupancy
system.cpu00.dcache.tags.occ_task_id_blocks::1024           64                       # Occupied blocks per task id
system.cpu00.dcache.tags.age_task_id_blocks_1024::0           58                       # Occupied blocks per task id
system.cpu00.dcache.tags.age_task_id_blocks_1024::1            6                       # Occupied blocks per task id
system.cpu00.dcache.tags.occ_task_id_percent::1024            1                       # Percentage of cache occupancy per task id
system.cpu00.dcache.tags.tag_accesses         1099182                       # Number of tag accesses
system.cpu00.dcache.tags.data_accesses        1099182                       # Number of data accesses
system.cpu00.dcache.ReadReq_hits::cpu00.data       138885                       # number of ReadReq hits
system.cpu00.dcache.ReadReq_hits::total        138885                       # number of ReadReq hits
system.cpu00.dcache.WriteReq_hits::cpu00.data        83084                       # number of WriteReq hits
system.cpu00.dcache.WriteReq_hits::total        83084                       # number of WriteReq hits
system.cpu00.dcache.LoadLockedReq_hits::cpu00.data          886                       # number of LoadLockedReq hits
system.cpu00.dcache.LoadLockedReq_hits::total          886                       # number of LoadLockedReq hits
system.cpu00.dcache.StoreCondReq_hits::cpu00.data         1103                       # number of StoreCondReq hits
system.cpu00.dcache.StoreCondReq_hits::total         1103                       # number of StoreCondReq hits
system.cpu00.dcache.demand_hits::cpu00.data       221969                       # number of demand (read+write) hits
system.cpu00.dcache.demand_hits::total         221969                       # number of demand (read+write) hits
system.cpu00.dcache.overall_hits::cpu00.data       221969                       # number of overall hits
system.cpu00.dcache.overall_hits::total        221969                       # number of overall hits
system.cpu00.dcache.ReadReq_misses::cpu00.data        11423                       # number of ReadReq misses
system.cpu00.dcache.ReadReq_misses::total        11423                       # number of ReadReq misses
system.cpu00.dcache.WriteReq_misses::cpu00.data        35309                       # number of WriteReq misses
system.cpu00.dcache.WriteReq_misses::total        35309                       # number of WriteReq misses
system.cpu00.dcache.LoadLockedReq_misses::cpu00.data          312                       # number of LoadLockedReq misses
system.cpu00.dcache.LoadLockedReq_misses::total          312                       # number of LoadLockedReq misses
system.cpu00.dcache.StoreCondReq_misses::cpu00.data           18                       # number of StoreCondReq misses
system.cpu00.dcache.StoreCondReq_misses::total           18                       # number of StoreCondReq misses
system.cpu00.dcache.demand_misses::cpu00.data        46732                       # number of demand (read+write) misses
system.cpu00.dcache.demand_misses::total        46732                       # number of demand (read+write) misses
system.cpu00.dcache.overall_misses::cpu00.data        46732                       # number of overall misses
system.cpu00.dcache.overall_misses::total        46732                       # number of overall misses
system.cpu00.dcache.ReadReq_miss_latency::cpu00.data    443013842                       # number of ReadReq miss cycles
system.cpu00.dcache.ReadReq_miss_latency::total    443013842                       # number of ReadReq miss cycles
system.cpu00.dcache.WriteReq_miss_latency::cpu00.data   5385238332                       # number of WriteReq miss cycles
system.cpu00.dcache.WriteReq_miss_latency::total   5385238332                       # number of WriteReq miss cycles
system.cpu00.dcache.LoadLockedReq_miss_latency::cpu00.data      2659905                       # number of LoadLockedReq miss cycles
system.cpu00.dcache.LoadLockedReq_miss_latency::total      2659905                       # number of LoadLockedReq miss cycles
system.cpu00.dcache.StoreCondReq_miss_latency::cpu00.data       310612                       # number of StoreCondReq miss cycles
system.cpu00.dcache.StoreCondReq_miss_latency::total       310612                       # number of StoreCondReq miss cycles
system.cpu00.dcache.demand_miss_latency::cpu00.data   5828252174                       # number of demand (read+write) miss cycles
system.cpu00.dcache.demand_miss_latency::total   5828252174                       # number of demand (read+write) miss cycles
system.cpu00.dcache.overall_miss_latency::cpu00.data   5828252174                       # number of overall miss cycles
system.cpu00.dcache.overall_miss_latency::total   5828252174                       # number of overall miss cycles
system.cpu00.dcache.ReadReq_accesses::cpu00.data       150308                       # number of ReadReq accesses(hits+misses)
system.cpu00.dcache.ReadReq_accesses::total       150308                       # number of ReadReq accesses(hits+misses)
system.cpu00.dcache.WriteReq_accesses::cpu00.data       118393                       # number of WriteReq accesses(hits+misses)
system.cpu00.dcache.WriteReq_accesses::total       118393                       # number of WriteReq accesses(hits+misses)
system.cpu00.dcache.LoadLockedReq_accesses::cpu00.data         1198                       # number of LoadLockedReq accesses(hits+misses)
system.cpu00.dcache.LoadLockedReq_accesses::total         1198                       # number of LoadLockedReq accesses(hits+misses)
system.cpu00.dcache.StoreCondReq_accesses::cpu00.data         1121                       # number of StoreCondReq accesses(hits+misses)
system.cpu00.dcache.StoreCondReq_accesses::total         1121                       # number of StoreCondReq accesses(hits+misses)
system.cpu00.dcache.demand_accesses::cpu00.data       268701                       # number of demand (read+write) accesses
system.cpu00.dcache.demand_accesses::total       268701                       # number of demand (read+write) accesses
system.cpu00.dcache.overall_accesses::cpu00.data       268701                       # number of overall (read+write) accesses
system.cpu00.dcache.overall_accesses::total       268701                       # number of overall (read+write) accesses
system.cpu00.dcache.ReadReq_miss_rate::cpu00.data     0.075997                       # miss rate for ReadReq accesses
system.cpu00.dcache.ReadReq_miss_rate::total     0.075997                       # miss rate for ReadReq accesses
system.cpu00.dcache.WriteReq_miss_rate::cpu00.data     0.298236                       # miss rate for WriteReq accesses
system.cpu00.dcache.WriteReq_miss_rate::total     0.298236                       # miss rate for WriteReq accesses
system.cpu00.dcache.LoadLockedReq_miss_rate::cpu00.data     0.260434                       # miss rate for LoadLockedReq accesses
system.cpu00.dcache.LoadLockedReq_miss_rate::total     0.260434                       # miss rate for LoadLockedReq accesses
system.cpu00.dcache.StoreCondReq_miss_rate::cpu00.data     0.016057                       # miss rate for StoreCondReq accesses
system.cpu00.dcache.StoreCondReq_miss_rate::total     0.016057                       # miss rate for StoreCondReq accesses
system.cpu00.dcache.demand_miss_rate::cpu00.data     0.173918                       # miss rate for demand accesses
system.cpu00.dcache.demand_miss_rate::total     0.173918                       # miss rate for demand accesses
system.cpu00.dcache.overall_miss_rate::cpu00.data     0.173918                       # miss rate for overall accesses
system.cpu00.dcache.overall_miss_rate::total     0.173918                       # miss rate for overall accesses
system.cpu00.dcache.ReadReq_avg_miss_latency::cpu00.data 38782.617701                       # average ReadReq miss latency
system.cpu00.dcache.ReadReq_avg_miss_latency::total 38782.617701                       # average ReadReq miss latency
system.cpu00.dcache.WriteReq_avg_miss_latency::cpu00.data 152517.441219                       # average WriteReq miss latency
system.cpu00.dcache.WriteReq_avg_miss_latency::total 152517.441219                       # average WriteReq miss latency
system.cpu00.dcache.LoadLockedReq_avg_miss_latency::cpu00.data  8525.336538                       # average LoadLockedReq miss latency
system.cpu00.dcache.LoadLockedReq_avg_miss_latency::total  8525.336538                       # average LoadLockedReq miss latency
system.cpu00.dcache.StoreCondReq_avg_miss_latency::cpu00.data 17256.222222                       # average StoreCondReq miss latency
system.cpu00.dcache.StoreCondReq_avg_miss_latency::total 17256.222222                       # average StoreCondReq miss latency
system.cpu00.dcache.demand_avg_miss_latency::cpu00.data 124716.514893                       # average overall miss latency
system.cpu00.dcache.demand_avg_miss_latency::total 124716.514893                       # average overall miss latency
system.cpu00.dcache.overall_avg_miss_latency::cpu00.data 124716.514893                       # average overall miss latency
system.cpu00.dcache.overall_avg_miss_latency::total 124716.514893                       # average overall miss latency
system.cpu00.dcache.blocked_cycles::no_mshrs       159457                       # number of cycles access was blocked
system.cpu00.dcache.blocked_cycles::no_targets            0                       # number of cycles access was blocked
system.cpu00.dcache.blocked::no_mshrs            3319                       # number of cycles access was blocked
system.cpu00.dcache.blocked::no_targets             0                       # number of cycles access was blocked
system.cpu00.dcache.avg_blocked_cycles::no_mshrs    48.043688                       # average number of cycles each access was blocked
system.cpu00.dcache.avg_blocked_cycles::no_targets          nan                       # average number of cycles each access was blocked
system.cpu00.dcache.fast_writes                     0                       # number of fast writes performed
system.cpu00.dcache.cache_copies                    0                       # number of cache copies performed
system.cpu00.dcache.writebacks::writebacks        10776                       # number of writebacks
system.cpu00.dcache.writebacks::total           10776                       # number of writebacks
system.cpu00.dcache.ReadReq_mshr_hits::cpu00.data         3547                       # number of ReadReq MSHR hits
system.cpu00.dcache.ReadReq_mshr_hits::total         3547                       # number of ReadReq MSHR hits
system.cpu00.dcache.WriteReq_mshr_hits::cpu00.data        28182                       # number of WriteReq MSHR hits
system.cpu00.dcache.WriteReq_mshr_hits::total        28182                       # number of WriteReq MSHR hits
system.cpu00.dcache.LoadLockedReq_mshr_hits::cpu00.data          144                       # number of LoadLockedReq MSHR hits
system.cpu00.dcache.LoadLockedReq_mshr_hits::total          144                       # number of LoadLockedReq MSHR hits
system.cpu00.dcache.demand_mshr_hits::cpu00.data        31729                       # number of demand (read+write) MSHR hits
system.cpu00.dcache.demand_mshr_hits::total        31729                       # number of demand (read+write) MSHR hits
system.cpu00.dcache.overall_mshr_hits::cpu00.data        31729                       # number of overall MSHR hits
system.cpu00.dcache.overall_mshr_hits::total        31729                       # number of overall MSHR hits
system.cpu00.dcache.ReadReq_mshr_misses::cpu00.data         7876                       # number of ReadReq MSHR misses
system.cpu00.dcache.ReadReq_mshr_misses::total         7876                       # number of ReadReq MSHR misses
system.cpu00.dcache.WriteReq_mshr_misses::cpu00.data         7127                       # number of WriteReq MSHR misses
system.cpu00.dcache.WriteReq_mshr_misses::total         7127                       # number of WriteReq MSHR misses
system.cpu00.dcache.LoadLockedReq_mshr_misses::cpu00.data          168                       # number of LoadLockedReq MSHR misses
system.cpu00.dcache.LoadLockedReq_mshr_misses::total          168                       # number of LoadLockedReq MSHR misses
system.cpu00.dcache.StoreCondReq_mshr_misses::cpu00.data           18                       # number of StoreCondReq MSHR misses
system.cpu00.dcache.StoreCondReq_mshr_misses::total           18                       # number of StoreCondReq MSHR misses
system.cpu00.dcache.demand_mshr_misses::cpu00.data        15003                       # number of demand (read+write) MSHR misses
system.cpu00.dcache.demand_mshr_misses::total        15003                       # number of demand (read+write) MSHR misses
system.cpu00.dcache.overall_mshr_misses::cpu00.data        15003                       # number of overall MSHR misses
system.cpu00.dcache.overall_mshr_misses::total        15003                       # number of overall MSHR misses
system.cpu00.dcache.ReadReq_mshr_miss_latency::cpu00.data    250348636                       # number of ReadReq MSHR miss cycles
system.cpu00.dcache.ReadReq_mshr_miss_latency::total    250348636                       # number of ReadReq MSHR miss cycles
system.cpu00.dcache.WriteReq_mshr_miss_latency::cpu00.data   1139979521                       # number of WriteReq MSHR miss cycles
system.cpu00.dcache.WriteReq_mshr_miss_latency::total   1139979521                       # number of WriteReq MSHR miss cycles
system.cpu00.dcache.LoadLockedReq_mshr_miss_latency::cpu00.data      1082506                       # number of LoadLockedReq MSHR miss cycles
system.cpu00.dcache.LoadLockedReq_mshr_miss_latency::total      1082506                       # number of LoadLockedReq MSHR miss cycles
system.cpu00.dcache.StoreCondReq_mshr_miss_latency::cpu00.data       289750                       # number of StoreCondReq MSHR miss cycles
system.cpu00.dcache.StoreCondReq_mshr_miss_latency::total       289750                       # number of StoreCondReq MSHR miss cycles
system.cpu00.dcache.demand_mshr_miss_latency::cpu00.data   1390328157                       # number of demand (read+write) MSHR miss cycles
system.cpu00.dcache.demand_mshr_miss_latency::total   1390328157                       # number of demand (read+write) MSHR miss cycles
system.cpu00.dcache.overall_mshr_miss_latency::cpu00.data   1390328157                       # number of overall MSHR miss cycles
system.cpu00.dcache.overall_mshr_miss_latency::total   1390328157                       # number of overall MSHR miss cycles
system.cpu00.dcache.ReadReq_mshr_miss_rate::cpu00.data     0.052399                       # mshr miss rate for ReadReq accesses
system.cpu00.dcache.ReadReq_mshr_miss_rate::total     0.052399                       # mshr miss rate for ReadReq accesses
system.cpu00.dcache.WriteReq_mshr_miss_rate::cpu00.data     0.060198                       # mshr miss rate for WriteReq accesses
system.cpu00.dcache.WriteReq_mshr_miss_rate::total     0.060198                       # mshr miss rate for WriteReq accesses
system.cpu00.dcache.LoadLockedReq_mshr_miss_rate::cpu00.data     0.140234                       # mshr miss rate for LoadLockedReq accesses
system.cpu00.dcache.LoadLockedReq_mshr_miss_rate::total     0.140234                       # mshr miss rate for LoadLockedReq accesses
system.cpu00.dcache.StoreCondReq_mshr_miss_rate::cpu00.data     0.016057                       # mshr miss rate for StoreCondReq accesses
system.cpu00.dcache.StoreCondReq_mshr_miss_rate::total     0.016057                       # mshr miss rate for StoreCondReq accesses
system.cpu00.dcache.demand_mshr_miss_rate::cpu00.data     0.055835                       # mshr miss rate for demand accesses
system.cpu00.dcache.demand_mshr_miss_rate::total     0.055835                       # mshr miss rate for demand accesses
system.cpu00.dcache.overall_mshr_miss_rate::cpu00.data     0.055835                       # mshr miss rate for overall accesses
system.cpu00.dcache.overall_mshr_miss_rate::total     0.055835                       # mshr miss rate for overall accesses
system.cpu00.dcache.ReadReq_avg_mshr_miss_latency::cpu00.data 31786.266633                       # average ReadReq mshr miss latency
system.cpu00.dcache.ReadReq_avg_mshr_miss_latency::total 31786.266633                       # average ReadReq mshr miss latency
system.cpu00.dcache.WriteReq_avg_mshr_miss_latency::cpu00.data 159952.226884                       # average WriteReq mshr miss latency
system.cpu00.dcache.WriteReq_avg_mshr_miss_latency::total 159952.226884                       # average WriteReq mshr miss latency
system.cpu00.dcache.LoadLockedReq_avg_mshr_miss_latency::cpu00.data  6443.488095                       # average LoadLockedReq mshr miss latency
system.cpu00.dcache.LoadLockedReq_avg_mshr_miss_latency::total  6443.488095                       # average LoadLockedReq mshr miss latency
system.cpu00.dcache.StoreCondReq_avg_mshr_miss_latency::cpu00.data 16097.222222                       # average StoreCondReq mshr miss latency
system.cpu00.dcache.StoreCondReq_avg_mshr_miss_latency::total 16097.222222                       # average StoreCondReq mshr miss latency
system.cpu00.dcache.demand_avg_mshr_miss_latency::cpu00.data 92670.009798                       # average overall mshr miss latency
system.cpu00.dcache.demand_avg_mshr_miss_latency::total 92670.009798                       # average overall mshr miss latency
system.cpu00.dcache.overall_avg_mshr_miss_latency::cpu00.data 92670.009798                       # average overall mshr miss latency
[...]
system.tol2bus.pkt_count_system.cpu06.dcache.mem_side::system.l2.cpu_side         2551                       # Packet count per connected master and slave (bytes)
system.tol2bus.pkt_count_system.cpu07.icache.mem_side::system.l2.cpu_side         1145                       # Packet count per connected master and slave (bytes)
system.tol2bus.pkt_count_system.cpu07.dcache.mem_side::system.l2.cpu_side         1231                       # Packet count per connected master and slave (bytes)
system.tol2bus.pkt_count_system.cpu08.icache.mem_side::system.l2.cpu_side         2489                       # Packet count per connected master and slave (bytes)
system.tol2bus.pkt_count_system.cpu08.dcache.mem_side::system.l2.cpu_side         3236                       # Packet count per connected master and slave (bytes)
system.tol2bus.pkt_count_system.cpu09.icache.mem_side::system.l2.cpu_side         2528                       # Packet count per connected master and slave (bytes)
system.tol2bus.pkt_count_system.cpu09.dcache.mem_side::system.l2.cpu_side         3499                       # Packet count per connected master and slave (bytes)
system.tol2bus.pkt_count_system.cpu10.icache.mem_side::system.l2.cpu_side         2050                       # Packet count per connected master and slave (bytes)
system.tol2bus.pkt_count_system.cpu10.dcache.mem_side::system.l2.cpu_side         2380                       # Packet count per connected master and slave (bytes)
system.tol2bus.pkt_count_system.cpu11.icache.mem_side::system.l2.cpu_side         2409                       # Packet count per connected master and slave (bytes)
system.tol2bus.pkt_count_system.cpu11.dcache.mem_side::system.l2.cpu_side         2967                       # Packet count per connected master and slave (bytes)
system.tol2bus.pkt_count_system.cpu12.icache.mem_side::system.l2.cpu_side          931                       # Packet count per connected master and slave (bytes)
system.tol2bus.pkt_count_system.cpu12.dcache.mem_side::system.l2.cpu_side         1292                       # Packet count per connected master and slave (bytes)
system.tol2bus.pkt_count_system.cpu13.icache.mem_side::system.l2.cpu_side         1738                       # Packet count per connected master and slave (bytes)
system.tol2bus.pkt_count_system.cpu13.dcache.mem_side::system.l2.cpu_side         1619                       # Packet count per connected master and slave (bytes)
system.tol2bus.pkt_count_system.cpu14.icache.mem_side::system.l2.cpu_side         2459                       # Packet count per connected master and slave (bytes)
system.tol2bus.pkt_count_system.cpu14.dcache.mem_side::system.l2.cpu_side         3436                       # Packet count per connected master and slave (bytes)
system.tol2bus.pkt_count_system.cpu15.icache.mem_side::system.l2.cpu_side         2214                       # Packet count per connected master and slave (bytes)
system.tol2bus.pkt_count_system.cpu15.dcache.mem_side::system.l2.cpu_side         2698                       # Packet count per connected master and slave (bytes)
system.tol2bus.pkt_count::total                130715                       # Packet count per connected master and slave (bytes)
system.tol2bus.pkt_size_system.cpu00.icache.mem_side::system.l2.cpu_side       984832                       # Cumulative packet size per connected master and slave (bytes)
system.tol2bus.pkt_size_system.cpu00.dcache.mem_side::system.l2.cpu_side      1637248                       # Cumulative packet size per connected master and slave (bytes)
system.tol2bus.pkt_size_system.cpu01.icache.mem_side::system.l2.cpu_side        83840                       # Cumulative packet size per connected master and slave (bytes)
system.tol2bus.pkt_size_system.cpu01.dcache.mem_side::system.l2.cpu_side        64704                       # Cumulative packet size per connected master and slave (bytes)
system.tol2bus.pkt_size_system.cpu02.icache.mem_side::system.l2.cpu_side        83968                       # Cumulative packet size per connected master and slave (bytes)
system.tol2bus.pkt_size_system.cpu02.dcache.mem_side::system.l2.cpu_side        70400                       # Cumulative packet size per connected master and slave (bytes)
system.tol2bus.pkt_size_system.cpu03.icache.mem_side::system.l2.cpu_side        54784                       # Cumulative packet size per connected master and slave (bytes)
system.tol2bus.pkt_size_system.cpu03.dcache.mem_side::system.l2.cpu_side        44608                       # Cumulative packet size per connected master and slave (bytes)
system.tol2bus.pkt_size_system.cpu04.icache.mem_side::system.l2.cpu_side        35264                       # Cumulative packet size per connected master and slave (bytes)
system.tol2bus.pkt_size_system.cpu04.dcache.mem_side::system.l2.cpu_side        38464                       # Cumulative packet size per connected master and slave (bytes)
system.tol2bus.pkt_size_system.cpu05.icache.mem_side::system.l2.cpu_side        43648                       # Cumulative packet size per connected master and slave (bytes)
system.tol2bus.pkt_size_system.cpu05.dcache.mem_side::system.l2.cpu_side        35584                       # Cumulative packet size per connected master and slave (bytes)
system.tol2bus.pkt_size_system.cpu06.icache.mem_side::system.l2.cpu_side        82368                       # Cumulative packet size per connected master and slave (bytes)
system.tol2bus.pkt_size_system.cpu06.dcache.mem_side::system.l2.cpu_side        64000                       # Cumulative packet size per connected master and slave (bytes)
system.tol2bus.pkt_size_system.cpu07.icache.mem_side::system.l2.cpu_side        40192                       # Cumulative packet size per connected master and slave (bytes)
system.tol2bus.pkt_size_system.cpu07.dcache.mem_side::system.l2.cpu_side        32384                       # Cumulative packet size per connected master and slave (bytes)
system.tol2bus.pkt_size_system.cpu08.icache.mem_side::system.l2.cpu_side        95872                       # Cumulative packet size per connected master and slave (bytes)
system.tol2bus.pkt_size_system.cpu08.dcache.mem_side::system.l2.cpu_side        82752                       # Cumulative packet size per connected master and slave (bytes)
system.tol2bus.pkt_size_system.cpu09.icache.mem_side::system.l2.cpu_side        97600                       # Cumulative packet size per connected master and slave (bytes)
system.tol2bus.pkt_size_system.cpu09.dcache.mem_side::system.l2.cpu_side        80576                       # Cumulative packet size per connected master and slave (bytes)
system.tol2bus.pkt_size_system.cpu10.icache.mem_side::system.l2.cpu_side        77248                       # Cumulative packet size per connected master and slave (bytes)
system.tol2bus.pkt_size_system.cpu10.dcache.mem_side::system.l2.cpu_side        67520                       # Cumulative packet size per connected master and slave (bytes)
system.tol2bus.pkt_size_system.cpu11.icache.mem_side::system.l2.cpu_side        92480                       # Cumulative packet size per connected master and slave (bytes)
system.tol2bus.pkt_size_system.cpu11.dcache.mem_side::system.l2.cpu_side        74944                       # Cumulative packet size per connected master and slave (bytes)
system.tol2bus.pkt_size_system.cpu12.icache.mem_side::system.l2.cpu_side        31616                       # Cumulative packet size per connected master and slave (bytes)
system.tol2bus.pkt_size_system.cpu12.dcache.mem_side::system.l2.cpu_side        41600                       # Cumulative packet size per connected master and slave (bytes)
system.tol2bus.pkt_size_system.cpu13.icache.mem_side::system.l2.cpu_side        64256                       # Cumulative packet size per connected master and slave (bytes)
system.tol2bus.pkt_size_system.cpu13.dcache.mem_side::system.l2.cpu_side        43200                       # Cumulative packet size per connected master and slave (bytes)
system.tol2bus.pkt_size_system.cpu14.icache.mem_side::system.l2.cpu_side        95040                       # Cumulative packet size per connected master and slave (bytes)
system.tol2bus.pkt_size_system.cpu14.dcache.mem_side::system.l2.cpu_side        86016                       # Cumulative packet size per connected master and slave (bytes)
system.tol2bus.pkt_size_system.cpu15.icache.mem_side::system.l2.cpu_side        84480                       # Cumulative packet size per connected master and slave (bytes)
system.tol2bus.pkt_size_system.cpu15.dcache.mem_side::system.l2.cpu_side        70976                       # Cumulative packet size per connected master and slave (bytes)
system.tol2bus.pkt_size::total                4582464                       # Cumulative packet size per connected master and slave (bytes)
system.tol2bus.snoops                            5828                       # Total snoops (count)
system.tol2bus.snoop_fanout::samples            49721                       # Request fanout histogram
system.tol2bus.snoop_fanout::mean            2.181975                       # Request fanout histogram
system.tol2bus.snoop_fanout::stdev           3.804556                       # Request fanout histogram
system.tol2bus.snoop_fanout::underflows             0      0.00%      0.00% # Request fanout histogram
system.tol2bus.snoop_fanout::0                  29146     58.62%     58.62% # Request fanout histogram
system.tol2bus.snoop_fanout::1                   6141     12.35%     70.97% # Request fanout histogram
system.tol2bus.snoop_fanout::2                   2154      4.33%     75.30% # Request fanout histogram
system.tol2bus.snoop_fanout::3                   1390      2.80%     78.10% # Request fanout histogram
system.tol2bus.snoop_fanout::4                   1251      2.52%     80.61% # Request fanout histogram
system.tol2bus.snoop_fanout::5                   1179      2.37%     82.99% # Request fanout histogram
system.tol2bus.snoop_fanout::6                   1199      2.41%     85.40% # Request fanout histogram
system.tol2bus.snoop_fanout::7                   1097      2.21%     87.60% # Request fanout histogram
system.tol2bus.snoop_fanout::8                   1022      2.06%     89.66% # Request fanout histogram
system.tol2bus.snoop_fanout::9                    900      1.81%     91.47% # Request fanout histogram
system.tol2bus.snoop_fanout::10                   833      1.68%     93.14% # Request fanout histogram
system.tol2bus.snoop_fanout::11                   806      1.62%     94.76% # Request fanout histogram
system.tol2bus.snoop_fanout::12                   769      1.55%     96.31% # Request fanout histogram
system.tol2bus.snoop_fanout::13                   713      1.43%     97.75% # Request fanout histogram
system.tol2bus.snoop_fanout::14                   685      1.38%     99.12% # Request fanout histogram
system.tol2bus.snoop_fanout::15                   436      0.88%    100.00% # Request fanout histogram
system.tol2bus.snoop_fanout::16                     0      0.00%    100.00% # Request fanout histogram
system.tol2bus.snoop_fanout::17                     0      0.00%    100.00% # Request fanout histogram
system.tol2bus.snoop_fanout::18                     0      0.00%    100.00% # Request fanout histogram
system.tol2bus.snoop_fanout::19                     0      0.00%    100.00% # Request fanout histogram
system.tol2bus.snoop_fanout::20                     0      0.00%    100.00% # Request fanout histogram
system.tol2bus.snoop_fanout::21                     0      0.00%    100.00% # Request fanout histogram
system.tol2bus.snoop_fanout::22                     0      0.00%    100.00% # Request fanout histogram
system.tol2bus.snoop_fanout::23                     0      0.00%    100.00% # Request fanout histogram
system.tol2bus.snoop_fanout::24                     0      0.00%    100.00% # Request fanout histogram
system.tol2bus.snoop_fanout::25                     0      0.00%    100.00% # Request fanout histogram
system.tol2bus.snoop_fanout::26                     0      0.00%    100.00% # Request fanout histogram
system.tol2bus.snoop_fanout::27                     0      0.00%    100.00% # Request fanout histogram
system.tol2bus.snoop_fanout::28                     0      0.00%    100.00% # Request fanout histogram
system.tol2bus.snoop_fanout::29                     0      0.00%    100.00% # Request fanout histogram
system.tol2bus.snoop_fanout::30                     0      0.00%    100.00% # Request fanout histogram
system.tol2bus.snoop_fanout::31                     0      0.00%    100.00% # Request fanout histogram
system.tol2bus.snoop_fanout::32                     0      0.00%    100.00% # Request fanout histogram
system.tol2bus.snoop_fanout::overflows              0      0.00%    100.00% # Request fanout histogram
system.tol2bus.snoop_fanout::min_value              0                       # Request fanout histogram
system.tol2bus.snoop_fanout::max_value             15                       # Request fanout histogram
system.tol2bus.snoop_fanout::total              49721                       # Request fanout histogram
system.tol2bus.reqLayer0.occupancy          166821150                       # Layer occupancy (ticks)
system.tol2bus.reqLayer0.utilization             13.4                       # Layer utilization (%)
system.tol2bus.respLayer0.occupancy          28019342                       # Layer occupancy (ticks)
system.tol2bus.respLayer0.utilization             2.3                       # Layer utilization (%)
system.tol2bus.respLayer1.occupancy          52936044                       # Layer occupancy (ticks)
system.tol2bus.respLayer1.utilization             4.3                       # Layer utilization (%)
system.tol2bus.respLayer2.occupancy           3202009                       # Layer occupancy (ticks)
system.tol2bus.respLayer2.utilization             0.3                       # Layer utilization (%)
system.tol2bus.respLayer3.occupancy           3360999                       # Layer occupancy (ticks)
system.tol2bus.respLayer3.utilization             0.3                       # Layer utilization (%)
system.tol2bus.respLayer4.occupancy           3205417                       # Layer occupancy (ticks)
system.tol2bus.respLayer4.utilization             0.3                       # Layer utilization (%)
system.tol2bus.respLayer5.occupancy           3773314                       # Layer occupancy (ticks)
system.tol2bus.respLayer5.utilization             0.3                       # Layer utilization (%)
system.tol2bus.respLayer6.occupancy           2375575                       # Layer occupancy (ticks)
system.tol2bus.respLayer6.utilization             0.2                       # Layer utilization (%)
system.tol2bus.respLayer7.occupancy           2371233                       # Layer occupancy (ticks)
system.tol2bus.respLayer7.utilization             0.2                       # Layer utilization (%)
system.tol2bus.respLayer8.occupancy           1718437                       # Layer occupancy (ticks)
system.tol2bus.respLayer8.utilization             0.1                       # Layer utilization (%)
system.tol2bus.respLayer9.occupancy           1768569                       # Layer occupancy (ticks)
system.tol2bus.respLayer9.utilization             0.1                       # Layer utilization (%)
system.tol2bus.respLayer10.occupancy          2009454                       # Layer occupancy (ticks)
system.tol2bus.respLayer10.utilization            0.2                       # Layer utilization (%)
system.tol2bus.respLayer11.occupancy          1813524                       # Layer occupancy (ticks)
system.tol2bus.respLayer11.utilization            0.1                       # Layer utilization (%)
system.tol2bus.respLayer12.occupancy          3139609                       # Layer occupancy (ticks)
system.tol2bus.respLayer12.utilization            0.3                       # Layer utilization (%)
system.tol2bus.respLayer13.occupancy          3672776                       # Layer occupancy (ticks)
system.tol2bus.respLayer13.utilization            0.3                       # Layer utilization (%)
system.tol2bus.respLayer14.occupancy          1860463                       # Layer occupancy (ticks)
system.tol2bus.respLayer14.utilization            0.1                       # Layer utilization (%)
system.tol2bus.respLayer15.occupancy          1772048                       # Layer occupancy (ticks)
system.tol2bus.respLayer15.utilization            0.1                       # Layer utilization (%)
system.tol2bus.respLayer16.occupancy          3519192                       # Layer occupancy (ticks)
system.tol2bus.respLayer16.utilization            0.3                       # Layer utilization (%)
system.tol2bus.respLayer17.occupancy          4926257                       # Layer occupancy (ticks)
system.tol2bus.respLayer17.utilization            0.4                       # Layer utilization (%)
system.tol2bus.respLayer18.occupancy          3553269                       # Layer occupancy (ticks)
system.tol2bus.respLayer18.utilization            0.3                       # Layer utilization (%)
system.tol2bus.respLayer19.occupancy          4907190                       # Layer occupancy (ticks)
system.tol2bus.respLayer19.utilization            0.4                       # Layer utilization (%)
system.tol2bus.respLayer20.occupancy          3044141                       # Layer occupancy (ticks)
system.tol2bus.respLayer20.utilization            0.2                       # Layer utilization (%)
system.tol2bus.respLayer21.occupancy          3396915                       # Layer occupancy (ticks)
system.tol2bus.respLayer21.utilization            0.3                       # Layer utilization (%)
system.tol2bus.respLayer22.occupancy          3430726                       # Layer occupancy (ticks)
system.tol2bus.respLayer22.utilization            0.3                       # Layer utilization (%)
system.tol2bus.respLayer23.occupancy          4379731                       # Layer occupancy (ticks)
system.tol2bus.respLayer23.utilization            0.4                       # Layer utilization (%)
system.tol2bus.respLayer24.occupancy          1580671                       # Layer occupancy (ticks)
system.tol2bus.respLayer24.utilization            0.1                       # Layer utilization (%)
system.tol2bus.respLayer25.occupancy          1737772                       # Layer occupancy (ticks)
system.tol2bus.respLayer25.utilization            0.1                       # Layer utilization (%)
system.tol2bus.respLayer26.occupancy          2656819                       # Layer occupancy (ticks)
system.tol2bus.respLayer26.utilization            0.2                       # Layer utilization (%)
system.tol2bus.respLayer27.occupancy          2318995                       # Layer occupancy (ticks)
system.tol2bus.respLayer27.utilization            0.2                       # Layer utilization (%)
system.tol2bus.respLayer28.occupancy          3504112                       # Layer occupancy (ticks)
system.tol2bus.respLayer28.utilization            0.3                       # Layer utilization (%)
system.tol2bus.respLayer29.occupancy          5052789                       # Layer occupancy (ticks)
system.tol2bus.respLayer29.utilization            0.4                       # Layer utilization (%)
system.tol2bus.respLayer30.occupancy          3163104                       # Layer occupancy (ticks)
system.tol2bus.respLayer30.utilization            0.3                       # Layer utilization (%)
system.tol2bus.respLayer31.occupancy          3921950                       # Layer occupancy (ticks)
system.tol2bus.respLayer31.utilization            0.3                       # Layer utilization (%)

---------- End Simulation Statistics   ----------
